
---------- Begin Simulation Statistics ----------
simSeconds                                   0.177131                       # Number of seconds simulated (Second)
simTicks                                 177131481500                       # Number of ticks simulated (Tick)
finalTick                                1393394182500                       # Number of ticks from beginning of simulation (restored from checkpoints and never reset) (Tick)
simFreq                                  1000000000000                       # The number of ticks per simulated second ((Tick/Second))
hostSeconds                                    467.03                       # Real time elapsed on the host (Second)
hostTickRate                                379271616                       # The number of ticks simulated per host second (ticks/s) ((Tick/Second))
hostMemory                                    8951756                       # Number of bytes of host memory used (Byte)
simInsts                                   1100000001                       # Number of instructions simulated (Count)
simOps                                     2047788772                       # Number of ops (including micro ops) simulated (Count)
hostInstRate                                  2355305                       # Simulator instruction rate (inst/s) ((Count/Second))
hostOpRate                                    4384697                       # Simulator op (including micro ops) rate (op/s) ((Count/Second))
system.clk_domain.clock                          1000                       # Clock period in ticks (Tick)
system.cpu.numCycles                                0                       # Number of cpu cycles simulated (Cycle)
system.cpu.numWorkItemsStarted                      0                       # Number of work items this cpu started (Count)
system.cpu.numWorkItemsCompleted                    0                       # Number of work items this cpu completed (Count)
system.cpu.dcache.demandHits::switch_cpus.data     28019475                       # number of demand (read+write) hits (Count)
system.cpu.dcache.demandHits::total          28019475                       # number of demand (read+write) hits (Count)
system.cpu.dcache.overallHits::switch_cpus.data     28019475                       # number of overall hits (Count)
system.cpu.dcache.overallHits::total         28019475                       # number of overall hits (Count)
system.cpu.dcache.demandMisses::switch_cpus.data       235114                       # number of demand (read+write) misses (Count)
system.cpu.dcache.demandMisses::total          235114                       # number of demand (read+write) misses (Count)
system.cpu.dcache.overallMisses::switch_cpus.data       235114                       # number of overall misses (Count)
system.cpu.dcache.overallMisses::total         235114                       # number of overall misses (Count)
system.cpu.dcache.demandMissLatency::switch_cpus.data  49212534500                       # number of demand (read+write) miss ticks (Tick)
system.cpu.dcache.demandMissLatency::total  49212534500                       # number of demand (read+write) miss ticks (Tick)
system.cpu.dcache.overallMissLatency::switch_cpus.data  49212534500                       # number of overall miss ticks (Tick)
system.cpu.dcache.overallMissLatency::total  49212534500                       # number of overall miss ticks (Tick)
system.cpu.dcache.demandAccesses::switch_cpus.data     28254589                       # number of demand (read+write) accesses (Count)
system.cpu.dcache.demandAccesses::total      28254589                       # number of demand (read+write) accesses (Count)
system.cpu.dcache.overallAccesses::switch_cpus.data     28254589                       # number of overall (read+write) accesses (Count)
system.cpu.dcache.overallAccesses::total     28254589                       # number of overall (read+write) accesses (Count)
system.cpu.dcache.demandMissRate::switch_cpus.data     0.008321                       # miss rate for demand accesses (Ratio)
system.cpu.dcache.demandMissRate::total      0.008321                       # miss rate for demand accesses (Ratio)
system.cpu.dcache.overallMissRate::switch_cpus.data     0.008321                       # miss rate for overall accesses (Ratio)
system.cpu.dcache.overallMissRate::total     0.008321                       # miss rate for overall accesses (Ratio)
system.cpu.dcache.demandAvgMissLatency::switch_cpus.data 209313.501110                       # average overall miss latency in ticks ((Tick/Count))
system.cpu.dcache.demandAvgMissLatency::total 209313.501110                       # average overall miss latency in ticks ((Tick/Count))
system.cpu.dcache.overallAvgMissLatency::switch_cpus.data 209313.501110                       # average overall miss latency ((Tick/Count))
system.cpu.dcache.overallAvgMissLatency::total 209313.501110                       # average overall miss latency ((Tick/Count))
system.cpu.dcache.blockedCycles::no_mshrs            0                       # number of cycles access was blocked (Cycle)
system.cpu.dcache.blockedCycles::no_targets            0                       # number of cycles access was blocked (Cycle)
system.cpu.dcache.blockedCauses::no_mshrs            0                       # number of times access was blocked (Count)
system.cpu.dcache.blockedCauses::no_targets            0                       # number of times access was blocked (Count)
system.cpu.dcache.avgBlocked::no_mshrs            nan                       # average number of cycles each access was blocked ((Cycle/Count))
system.cpu.dcache.avgBlocked::no_targets          nan                       # average number of cycles each access was blocked ((Cycle/Count))
system.cpu.dcache.writebacks::writebacks       167960                       # number of writebacks (Count)
system.cpu.dcache.writebacks::total            167960                       # number of writebacks (Count)
system.cpu.dcache.demandMshrHits::switch_cpus.data        67154                       # number of demand (read+write) MSHR hits (Count)
system.cpu.dcache.demandMshrHits::total         67154                       # number of demand (read+write) MSHR hits (Count)
system.cpu.dcache.overallMshrHits::switch_cpus.data        67154                       # number of overall MSHR hits (Count)
system.cpu.dcache.overallMshrHits::total        67154                       # number of overall MSHR hits (Count)
system.cpu.dcache.demandMshrMisses::switch_cpus.data       167960                       # number of demand (read+write) MSHR misses (Count)
system.cpu.dcache.demandMshrMisses::total       167960                       # number of demand (read+write) MSHR misses (Count)
system.cpu.dcache.overallMshrMisses::switch_cpus.data       167960                       # number of overall MSHR misses (Count)
system.cpu.dcache.overallMshrMisses::total       167960                       # number of overall MSHR misses (Count)
system.cpu.dcache.demandMshrMissLatency::switch_cpus.data  34981886500                       # number of demand (read+write) MSHR miss ticks (Tick)
system.cpu.dcache.demandMshrMissLatency::total  34981886500                       # number of demand (read+write) MSHR miss ticks (Tick)
system.cpu.dcache.overallMshrMissLatency::switch_cpus.data  34981886500                       # number of overall MSHR miss ticks (Tick)
system.cpu.dcache.overallMshrMissLatency::total  34981886500                       # number of overall MSHR miss ticks (Tick)
system.cpu.dcache.demandMshrMissRate::switch_cpus.data     0.005945                       # mshr miss ratio for demand accesses (Ratio)
system.cpu.dcache.demandMshrMissRate::total     0.005945                       # mshr miss ratio for demand accesses (Ratio)
system.cpu.dcache.overallMshrMissRate::switch_cpus.data     0.005945                       # mshr miss ratio for overall accesses (Ratio)
system.cpu.dcache.overallMshrMissRate::total     0.005945                       # mshr miss ratio for overall accesses (Ratio)
system.cpu.dcache.demandAvgMshrMissLatency::switch_cpus.data 208275.104191                       # average overall mshr miss latency ((Tick/Count))
system.cpu.dcache.demandAvgMshrMissLatency::total 208275.104191                       # average overall mshr miss latency ((Tick/Count))
system.cpu.dcache.overallAvgMshrMissLatency::switch_cpus.data 208275.104191                       # average overall mshr miss latency ((Tick/Count))
system.cpu.dcache.overallAvgMshrMissLatency::total 208275.104191                       # average overall mshr miss latency ((Tick/Count))
system.cpu.dcache.replacements                 167960                       # number of replacements (Count)
system.cpu.dcache.ReadReq.hits::switch_cpus.data     22363594                       # number of ReadReq hits (Count)
system.cpu.dcache.ReadReq.hits::total        22363594                       # number of ReadReq hits (Count)
system.cpu.dcache.ReadReq.misses::switch_cpus.data       235114                       # number of ReadReq misses (Count)
system.cpu.dcache.ReadReq.misses::total        235114                       # number of ReadReq misses (Count)
system.cpu.dcache.ReadReq.missLatency::switch_cpus.data  49212534500                       # number of ReadReq miss ticks (Tick)
system.cpu.dcache.ReadReq.missLatency::total  49212534500                       # number of ReadReq miss ticks (Tick)
system.cpu.dcache.ReadReq.accesses::switch_cpus.data     22598708                       # number of ReadReq accesses(hits+misses) (Count)
system.cpu.dcache.ReadReq.accesses::total     22598708                       # number of ReadReq accesses(hits+misses) (Count)
system.cpu.dcache.ReadReq.missRate::switch_cpus.data     0.010404                       # miss rate for ReadReq accesses (Ratio)
system.cpu.dcache.ReadReq.missRate::total     0.010404                       # miss rate for ReadReq accesses (Ratio)
system.cpu.dcache.ReadReq.avgMissLatency::switch_cpus.data 209313.501110                       # average ReadReq miss latency ((Tick/Count))
system.cpu.dcache.ReadReq.avgMissLatency::total 209313.501110                       # average ReadReq miss latency ((Tick/Count))
system.cpu.dcache.ReadReq.mshrHits::switch_cpus.data        67154                       # number of ReadReq MSHR hits (Count)
system.cpu.dcache.ReadReq.mshrHits::total        67154                       # number of ReadReq MSHR hits (Count)
system.cpu.dcache.ReadReq.mshrMisses::switch_cpus.data       167960                       # number of ReadReq MSHR misses (Count)
system.cpu.dcache.ReadReq.mshrMisses::total       167960                       # number of ReadReq MSHR misses (Count)
system.cpu.dcache.ReadReq.mshrMissLatency::switch_cpus.data  34981886500                       # number of ReadReq MSHR miss ticks (Tick)
system.cpu.dcache.ReadReq.mshrMissLatency::total  34981886500                       # number of ReadReq MSHR miss ticks (Tick)
system.cpu.dcache.ReadReq.mshrMissRate::switch_cpus.data     0.007432                       # mshr miss rate for ReadReq accesses (Ratio)
system.cpu.dcache.ReadReq.mshrMissRate::total     0.007432                       # mshr miss rate for ReadReq accesses (Ratio)
system.cpu.dcache.ReadReq.avgMshrMissLatency::switch_cpus.data 208275.104191                       # average ReadReq mshr miss latency ((Tick/Count))
system.cpu.dcache.ReadReq.avgMshrMissLatency::total 208275.104191                       # average ReadReq mshr miss latency ((Tick/Count))
system.cpu.dcache.WriteReq.hits::switch_cpus.data      5655881                       # number of WriteReq hits (Count)
system.cpu.dcache.WriteReq.hits::total        5655881                       # number of WriteReq hits (Count)
system.cpu.dcache.WriteReq.accesses::switch_cpus.data      5655881                       # number of WriteReq accesses(hits+misses) (Count)
system.cpu.dcache.WriteReq.accesses::total      5655881                       # number of WriteReq accesses(hits+misses) (Count)
system.cpu.dcache.power_state.pwrStateResidencyTicks::UNDEFINED 1393394182500                       # Cumulative time (in ticks) in various power states (Tick)
system.cpu.dcache.tags.tagsInUse                  256                       # Average ticks per tags in use ((Tick/Count))
system.cpu.dcache.tags.totalRefs            165950084                       # Total number of references to valid blocks. (Count)
system.cpu.dcache.tags.sampledRefs             168216                       # Sample count of references to valid blocks. (Count)
system.cpu.dcache.tags.avgRefs             986.529724                       # Average number of references to valid blocks. ((Count/Count))
system.cpu.dcache.tags.warmupTick                   0                       # The tick when the warmup percentage was hit. (Tick)
system.cpu.dcache.tags.occupancies::cpu.data    30.157907                       # Average occupied blocks per tick, per requestor ((Count/Tick))
system.cpu.dcache.tags.occupancies::switch_cpus.data   225.842093                       # Average occupied blocks per tick, per requestor ((Count/Tick))
system.cpu.dcache.tags.avgOccs::cpu.data     0.117804                       # Average percentage of cache occupancy ((Ratio/Tick))
system.cpu.dcache.tags.avgOccs::switch_cpus.data     0.882196                       # Average percentage of cache occupancy ((Ratio/Tick))
system.cpu.dcache.tags.avgOccs::total               1                       # Average percentage of cache occupancy ((Ratio/Tick))
system.cpu.dcache.tags.occupanciesTaskId::1024          256                       # Occupied blocks per task id (Count)
system.cpu.dcache.tags.ageTaskId_1024::0            9                       # Occupied blocks per task id, per block age (Count)
system.cpu.dcache.tags.ageTaskId_1024::1           86                       # Occupied blocks per task id, per block age (Count)
system.cpu.dcache.tags.ageTaskId_1024::2          131                       # Occupied blocks per task id, per block age (Count)
system.cpu.dcache.tags.ageTaskId_1024::4           30                       # Occupied blocks per task id, per block age (Count)
system.cpu.dcache.tags.ratioOccsTaskId::1024            1                       # Ratio of occupied blocks and all blocks, per task id (Ratio)
system.cpu.dcache.tags.tagAccesses         1808461656                       # Number of tag accesses (Count)
system.cpu.dcache.tags.dataAccesses        1808461656                       # Number of data accesses (Count)
system.cpu.dcache.tags.power_state.pwrStateResidencyTicks::UNDEFINED 1393394182500                       # Cumulative time (in ticks) in various power states (Tick)
system.cpu.dtb_walker_cache.blockedCycles::no_mshrs            0                       # number of cycles access was blocked (Cycle)
system.cpu.dtb_walker_cache.blockedCycles::no_targets            0                       # number of cycles access was blocked (Cycle)
system.cpu.dtb_walker_cache.blockedCauses::no_mshrs            0                       # number of times access was blocked (Count)
system.cpu.dtb_walker_cache.blockedCauses::no_targets            0                       # number of times access was blocked (Count)
system.cpu.dtb_walker_cache.avgBlocked::no_mshrs          nan                       # average number of cycles each access was blocked ((Cycle/Count))
system.cpu.dtb_walker_cache.avgBlocked::no_targets          nan                       # average number of cycles each access was blocked ((Cycle/Count))
system.cpu.dtb_walker_cache.replacements            0                       # number of replacements (Count)
system.cpu.dtb_walker_cache.power_state.pwrStateResidencyTicks::UNDEFINED 1393394182500                       # Cumulative time (in ticks) in various power states (Tick)
system.cpu.dtb_walker_cache.tags.tagsInUse            0                       # Average ticks per tags in use ((Tick/Count))
system.cpu.dtb_walker_cache.tags.totalRefs            0                       # Total number of references to valid blocks. (Count)
system.cpu.dtb_walker_cache.tags.sampledRefs            0                       # Sample count of references to valid blocks. (Count)
system.cpu.dtb_walker_cache.tags.avgRefs          nan                       # Average number of references to valid blocks. ((Count/Count))
system.cpu.dtb_walker_cache.tags.warmupTick            0                       # The tick when the warmup percentage was hit. (Tick)
system.cpu.dtb_walker_cache.tags.tagAccesses            0                       # Number of tag accesses (Count)
system.cpu.dtb_walker_cache.tags.dataAccesses            0                       # Number of data accesses (Count)
system.cpu.dtb_walker_cache.tags.power_state.pwrStateResidencyTicks::UNDEFINED 1393394182500                       # Cumulative time (in ticks) in various power states (Tick)
system.cpu.exec_context.thread_0.numInsts            0                       # Number of instructions committed (Count)
system.cpu.exec_context.thread_0.numOps             0                       # Number of ops (including micro ops) committed (Count)
system.cpu.exec_context.thread_0.numIntAluAccesses            0                       # Number of integer alu accesses (Count)
system.cpu.exec_context.thread_0.numFpAluAccesses            0                       # Number of float alu accesses (Count)
system.cpu.exec_context.thread_0.numVecAluAccesses            0                       # Number of vector alu accesses (Count)
system.cpu.exec_context.thread_0.numCallsReturns            0                       # Number of times a function call or return occured (Count)
system.cpu.exec_context.thread_0.numCondCtrlInsts            0                       # Number of instructions that are conditional controls (Count)
system.cpu.exec_context.thread_0.numIntInsts            0                       # Number of integer instructions (Count)
system.cpu.exec_context.thread_0.numFpInsts            0                       # Number of float instructions (Count)
system.cpu.exec_context.thread_0.numVecInsts            0                       # Number of vector instructions (Count)
system.cpu.exec_context.thread_0.numIntRegReads            0                       # Number of times the integer registers were read (Count)
system.cpu.exec_context.thread_0.numIntRegWrites            0                       # Number of times the integer registers were written (Count)
system.cpu.exec_context.thread_0.numFpRegReads            0                       # Number of times the floating registers were read (Count)
system.cpu.exec_context.thread_0.numFpRegWrites            0                       # Number of times the floating registers were written (Count)
system.cpu.exec_context.thread_0.numVecRegReads            0                       # Number of times the vector registers were read (Count)
system.cpu.exec_context.thread_0.numVecRegWrites            0                       # Number of times the vector registers were written (Count)
system.cpu.exec_context.thread_0.numVecPredRegReads            0                       # Number of times the predicate registers were read (Count)
system.cpu.exec_context.thread_0.numVecPredRegWrites            0                       # Number of times the predicate registers were written (Count)
system.cpu.exec_context.thread_0.numMiscRegReads            0                       # Number of times the Misc registers were read (Count)
system.cpu.exec_context.thread_0.numMiscRegWrites            0                       # Number of times the Misc registers were written (Count)
system.cpu.exec_context.thread_0.numMemRefs            0                       # Number of memory refs (Count)
system.cpu.exec_context.thread_0.numLoadInsts            0                       # Number of load instructions (Count)
system.cpu.exec_context.thread_0.numStoreInsts            0                       # Number of store instructions (Count)
system.cpu.exec_context.thread_0.numIdleCycles            0                       # Number of idle cycles (Cycle)
system.cpu.exec_context.thread_0.numBusyCycles            0                       # Number of busy cycles (Cycle)
system.cpu.exec_context.thread_0.notIdleFraction            1                       # Percentage of non-idle cycles (Ratio)
system.cpu.exec_context.thread_0.idleFraction            0                       # Percentage of idle cycles (Ratio)
system.cpu.exec_context.thread_0.statExecutedInstType::No_OpClass            0                       # Class of executed instruction. (Count)
system.cpu.exec_context.thread_0.statExecutedInstType::IntAlu            0                       # Class of executed instruction. (Count)
system.cpu.exec_context.thread_0.statExecutedInstType::IntMult            0                       # Class of executed instruction. (Count)
system.cpu.exec_context.thread_0.statExecutedInstType::IntDiv            0                       # Class of executed instruction. (Count)
system.cpu.exec_context.thread_0.statExecutedInstType::FloatAdd            0                       # Class of executed instruction. (Count)
system.cpu.exec_context.thread_0.statExecutedInstType::FloatCmp            0                       # Class of executed instruction. (Count)
system.cpu.exec_context.thread_0.statExecutedInstType::FloatCvt            0                       # Class of executed instruction. (Count)
system.cpu.exec_context.thread_0.statExecutedInstType::FloatMult            0                       # Class of executed instruction. (Count)
system.cpu.exec_context.thread_0.statExecutedInstType::FloatMultAcc            0                       # Class of executed instruction. (Count)
system.cpu.exec_context.thread_0.statExecutedInstType::FloatDiv            0                       # Class of executed instruction. (Count)
system.cpu.exec_context.thread_0.statExecutedInstType::FloatMisc            0                       # Class of executed instruction. (Count)
system.cpu.exec_context.thread_0.statExecutedInstType::FloatSqrt            0                       # Class of executed instruction. (Count)
system.cpu.exec_context.thread_0.statExecutedInstType::SimdAdd            0                       # Class of executed instruction. (Count)
system.cpu.exec_context.thread_0.statExecutedInstType::SimdAddAcc            0                       # Class of executed instruction. (Count)
system.cpu.exec_context.thread_0.statExecutedInstType::SimdAlu            0                       # Class of executed instruction. (Count)
system.cpu.exec_context.thread_0.statExecutedInstType::SimdCmp            0                       # Class of executed instruction. (Count)
system.cpu.exec_context.thread_0.statExecutedInstType::SimdCvt            0                       # Class of executed instruction. (Count)
system.cpu.exec_context.thread_0.statExecutedInstType::SimdMisc            0                       # Class of executed instruction. (Count)
system.cpu.exec_context.thread_0.statExecutedInstType::SimdMult            0                       # Class of executed instruction. (Count)
system.cpu.exec_context.thread_0.statExecutedInstType::SimdMultAcc            0                       # Class of executed instruction. (Count)
system.cpu.exec_context.thread_0.statExecutedInstType::SimdShift            0                       # Class of executed instruction. (Count)
system.cpu.exec_context.thread_0.statExecutedInstType::SimdShiftAcc            0                       # Class of executed instruction. (Count)
system.cpu.exec_context.thread_0.statExecutedInstType::SimdDiv            0                       # Class of executed instruction. (Count)
system.cpu.exec_context.thread_0.statExecutedInstType::SimdSqrt            0                       # Class of executed instruction. (Count)
system.cpu.exec_context.thread_0.statExecutedInstType::SimdFloatAdd            0                       # Class of executed instruction. (Count)
system.cpu.exec_context.thread_0.statExecutedInstType::SimdFloatAlu            0                       # Class of executed instruction. (Count)
system.cpu.exec_context.thread_0.statExecutedInstType::SimdFloatCmp            0                       # Class of executed instruction. (Count)
system.cpu.exec_context.thread_0.statExecutedInstType::SimdFloatCvt            0                       # Class of executed instruction. (Count)
system.cpu.exec_context.thread_0.statExecutedInstType::SimdFloatDiv            0                       # Class of executed instruction. (Count)
system.cpu.exec_context.thread_0.statExecutedInstType::SimdFloatMisc            0                       # Class of executed instruction. (Count)
system.cpu.exec_context.thread_0.statExecutedInstType::SimdFloatMult            0                       # Class of executed instruction. (Count)
system.cpu.exec_context.thread_0.statExecutedInstType::SimdFloatMultAcc            0                       # Class of executed instruction. (Count)
system.cpu.exec_context.thread_0.statExecutedInstType::SimdFloatSqrt            0                       # Class of executed instruction. (Count)
system.cpu.exec_context.thread_0.statExecutedInstType::SimdReduceAdd            0                       # Class of executed instruction. (Count)
system.cpu.exec_context.thread_0.statExecutedInstType::SimdReduceAlu            0                       # Class of executed instruction. (Count)
system.cpu.exec_context.thread_0.statExecutedInstType::SimdReduceCmp            0                       # Class of executed instruction. (Count)
system.cpu.exec_context.thread_0.statExecutedInstType::SimdFloatReduceAdd            0                       # Class of executed instruction. (Count)
system.cpu.exec_context.thread_0.statExecutedInstType::SimdFloatReduceCmp            0                       # Class of executed instruction. (Count)
system.cpu.exec_context.thread_0.statExecutedInstType::SimdAes            0                       # Class of executed instruction. (Count)
system.cpu.exec_context.thread_0.statExecutedInstType::SimdAesMix            0                       # Class of executed instruction. (Count)
system.cpu.exec_context.thread_0.statExecutedInstType::SimdSha1Hash            0                       # Class of executed instruction. (Count)
system.cpu.exec_context.thread_0.statExecutedInstType::SimdSha1Hash2            0                       # Class of executed instruction. (Count)
system.cpu.exec_context.thread_0.statExecutedInstType::SimdSha256Hash            0                       # Class of executed instruction. (Count)
system.cpu.exec_context.thread_0.statExecutedInstType::SimdSha256Hash2            0                       # Class of executed instruction. (Count)
system.cpu.exec_context.thread_0.statExecutedInstType::SimdShaSigma2            0                       # Class of executed instruction. (Count)
system.cpu.exec_context.thread_0.statExecutedInstType::SimdShaSigma3            0                       # Class of executed instruction. (Count)
system.cpu.exec_context.thread_0.statExecutedInstType::SimdPredAlu            0                       # Class of executed instruction. (Count)
system.cpu.exec_context.thread_0.statExecutedInstType::MemRead            0                       # Class of executed instruction. (Count)
system.cpu.exec_context.thread_0.statExecutedInstType::MemWrite            0                       # Class of executed instruction. (Count)
system.cpu.exec_context.thread_0.statExecutedInstType::FloatMemRead            0                       # Class of executed instruction. (Count)
system.cpu.exec_context.thread_0.statExecutedInstType::FloatMemWrite            0                       # Class of executed instruction. (Count)
system.cpu.exec_context.thread_0.statExecutedInstType::IprAccess            0                       # Class of executed instruction. (Count)
system.cpu.exec_context.thread_0.statExecutedInstType::InstPrefetch            0                       # Class of executed instruction. (Count)
system.cpu.exec_context.thread_0.statExecutedInstType::total            0                       # Class of executed instruction. (Count)
system.cpu.icache.demandHits::switch_cpus.inst     31462821                       # number of demand (read+write) hits (Count)
system.cpu.icache.demandHits::total          31462821                       # number of demand (read+write) hits (Count)
system.cpu.icache.overallHits::switch_cpus.inst     31462821                       # number of overall hits (Count)
system.cpu.icache.overallHits::total         31462821                       # number of overall hits (Count)
system.cpu.icache.demandMisses::switch_cpus.inst           20                       # number of demand (read+write) misses (Count)
system.cpu.icache.demandMisses::total              20                       # number of demand (read+write) misses (Count)
system.cpu.icache.overallMisses::switch_cpus.inst           20                       # number of overall misses (Count)
system.cpu.icache.overallMisses::total             20                       # number of overall misses (Count)
system.cpu.icache.demandMissLatency::switch_cpus.inst      4281500                       # number of demand (read+write) miss ticks (Tick)
system.cpu.icache.demandMissLatency::total      4281500                       # number of demand (read+write) miss ticks (Tick)
system.cpu.icache.overallMissLatency::switch_cpus.inst      4281500                       # number of overall miss ticks (Tick)
system.cpu.icache.overallMissLatency::total      4281500                       # number of overall miss ticks (Tick)
system.cpu.icache.demandAccesses::switch_cpus.inst     31462841                       # number of demand (read+write) accesses (Count)
system.cpu.icache.demandAccesses::total      31462841                       # number of demand (read+write) accesses (Count)
system.cpu.icache.overallAccesses::switch_cpus.inst     31462841                       # number of overall (read+write) accesses (Count)
system.cpu.icache.overallAccesses::total     31462841                       # number of overall (read+write) accesses (Count)
system.cpu.icache.demandMissRate::switch_cpus.inst     0.000001                       # miss rate for demand accesses (Ratio)
system.cpu.icache.demandMissRate::total      0.000001                       # miss rate for demand accesses (Ratio)
system.cpu.icache.overallMissRate::switch_cpus.inst     0.000001                       # miss rate for overall accesses (Ratio)
system.cpu.icache.overallMissRate::total     0.000001                       # miss rate for overall accesses (Ratio)
system.cpu.icache.demandAvgMissLatency::switch_cpus.inst       214075                       # average overall miss latency in ticks ((Tick/Count))
system.cpu.icache.demandAvgMissLatency::total       214075                       # average overall miss latency in ticks ((Tick/Count))
system.cpu.icache.overallAvgMissLatency::switch_cpus.inst       214075                       # average overall miss latency ((Tick/Count))
system.cpu.icache.overallAvgMissLatency::total       214075                       # average overall miss latency ((Tick/Count))
system.cpu.icache.blockedCycles::no_mshrs            0                       # number of cycles access was blocked (Cycle)
system.cpu.icache.blockedCycles::no_targets            0                       # number of cycles access was blocked (Cycle)
system.cpu.icache.blockedCauses::no_mshrs            0                       # number of times access was blocked (Count)
system.cpu.icache.blockedCauses::no_targets            0                       # number of times access was blocked (Count)
system.cpu.icache.avgBlocked::no_mshrs            nan                       # average number of cycles each access was blocked ((Cycle/Count))
system.cpu.icache.avgBlocked::no_targets          nan                       # average number of cycles each access was blocked ((Cycle/Count))
system.cpu.icache.demandMshrMisses::switch_cpus.inst           20                       # number of demand (read+write) MSHR misses (Count)
system.cpu.icache.demandMshrMisses::total           20                       # number of demand (read+write) MSHR misses (Count)
system.cpu.icache.overallMshrMisses::switch_cpus.inst           20                       # number of overall MSHR misses (Count)
system.cpu.icache.overallMshrMisses::total           20                       # number of overall MSHR misses (Count)
system.cpu.icache.demandMshrMissLatency::switch_cpus.inst      4261500                       # number of demand (read+write) MSHR miss ticks (Tick)
system.cpu.icache.demandMshrMissLatency::total      4261500                       # number of demand (read+write) MSHR miss ticks (Tick)
system.cpu.icache.overallMshrMissLatency::switch_cpus.inst      4261500                       # number of overall MSHR miss ticks (Tick)
system.cpu.icache.overallMshrMissLatency::total      4261500                       # number of overall MSHR miss ticks (Tick)
system.cpu.icache.demandMshrMissRate::switch_cpus.inst     0.000001                       # mshr miss ratio for demand accesses (Ratio)
system.cpu.icache.demandMshrMissRate::total     0.000001                       # mshr miss ratio for demand accesses (Ratio)
system.cpu.icache.overallMshrMissRate::switch_cpus.inst     0.000001                       # mshr miss ratio for overall accesses (Ratio)
system.cpu.icache.overallMshrMissRate::total     0.000001                       # mshr miss ratio for overall accesses (Ratio)
system.cpu.icache.demandAvgMshrMissLatency::switch_cpus.inst       213075                       # average overall mshr miss latency ((Tick/Count))
system.cpu.icache.demandAvgMshrMissLatency::total       213075                       # average overall mshr miss latency ((Tick/Count))
system.cpu.icache.overallAvgMshrMissLatency::switch_cpus.inst       213075                       # average overall mshr miss latency ((Tick/Count))
system.cpu.icache.overallAvgMshrMissLatency::total       213075                       # average overall mshr miss latency ((Tick/Count))
system.cpu.icache.replacements                     20                       # number of replacements (Count)
system.cpu.icache.ReadReq.hits::switch_cpus.inst     31462821                       # number of ReadReq hits (Count)
system.cpu.icache.ReadReq.hits::total        31462821                       # number of ReadReq hits (Count)
system.cpu.icache.ReadReq.misses::switch_cpus.inst           20                       # number of ReadReq misses (Count)
system.cpu.icache.ReadReq.misses::total            20                       # number of ReadReq misses (Count)
system.cpu.icache.ReadReq.missLatency::switch_cpus.inst      4281500                       # number of ReadReq miss ticks (Tick)
system.cpu.icache.ReadReq.missLatency::total      4281500                       # number of ReadReq miss ticks (Tick)
system.cpu.icache.ReadReq.accesses::switch_cpus.inst     31462841                       # number of ReadReq accesses(hits+misses) (Count)
system.cpu.icache.ReadReq.accesses::total     31462841                       # number of ReadReq accesses(hits+misses) (Count)
system.cpu.icache.ReadReq.missRate::switch_cpus.inst     0.000001                       # miss rate for ReadReq accesses (Ratio)
system.cpu.icache.ReadReq.missRate::total     0.000001                       # miss rate for ReadReq accesses (Ratio)
system.cpu.icache.ReadReq.avgMissLatency::switch_cpus.inst       214075                       # average ReadReq miss latency ((Tick/Count))
system.cpu.icache.ReadReq.avgMissLatency::total       214075                       # average ReadReq miss latency ((Tick/Count))
system.cpu.icache.ReadReq.mshrMisses::switch_cpus.inst           20                       # number of ReadReq MSHR misses (Count)
system.cpu.icache.ReadReq.mshrMisses::total           20                       # number of ReadReq MSHR misses (Count)
system.cpu.icache.ReadReq.mshrMissLatency::switch_cpus.inst      4261500                       # number of ReadReq MSHR miss ticks (Tick)
system.cpu.icache.ReadReq.mshrMissLatency::total      4261500                       # number of ReadReq MSHR miss ticks (Tick)
system.cpu.icache.ReadReq.mshrMissRate::switch_cpus.inst     0.000001                       # mshr miss rate for ReadReq accesses (Ratio)
system.cpu.icache.ReadReq.mshrMissRate::total     0.000001                       # mshr miss rate for ReadReq accesses (Ratio)
system.cpu.icache.ReadReq.avgMshrMissLatency::switch_cpus.inst       213075                       # average ReadReq mshr miss latency ((Tick/Count))
system.cpu.icache.ReadReq.avgMshrMissLatency::total       213075                       # average ReadReq mshr miss latency ((Tick/Count))
system.cpu.icache.power_state.pwrStateResidencyTicks::UNDEFINED 1393394182500                       # Cumulative time (in ticks) in various power states (Tick)
system.cpu.icache.tags.tagsInUse                  256                       # Average ticks per tags in use ((Tick/Count))
system.cpu.icache.tags.totalRefs           1593352145                       # Total number of references to valid blocks. (Count)
system.cpu.icache.tags.sampledRefs                276                       # Sample count of references to valid blocks. (Count)
system.cpu.icache.tags.avgRefs           5773015.018116                       # Average number of references to valid blocks. ((Count/Count))
system.cpu.icache.tags.warmupTick                   0                       # The tick when the warmup percentage was hit. (Tick)
system.cpu.icache.tags.occupancies::cpu.inst   236.039594                       # Average occupied blocks per tick, per requestor ((Count/Tick))
system.cpu.icache.tags.occupancies::switch_cpus.inst    19.960406                       # Average occupied blocks per tick, per requestor ((Count/Tick))
system.cpu.icache.tags.avgOccs::cpu.inst     0.922030                       # Average percentage of cache occupancy ((Ratio/Tick))
system.cpu.icache.tags.avgOccs::switch_cpus.inst     0.077970                       # Average percentage of cache occupancy ((Ratio/Tick))
system.cpu.icache.tags.avgOccs::total               1                       # Average percentage of cache occupancy ((Ratio/Tick))
system.cpu.icache.tags.occupanciesTaskId::1024          256                       # Occupied blocks per task id (Count)
system.cpu.icache.tags.ageTaskId_1024::4          256                       # Occupied blocks per task id, per block age (Count)
system.cpu.icache.tags.ratioOccsTaskId::1024            1                       # Ratio of occupied blocks and all blocks, per task id (Ratio)
system.cpu.icache.tags.tagAccesses         2013621844                       # Number of tag accesses (Count)
system.cpu.icache.tags.dataAccesses        2013621844                       # Number of data accesses (Count)
system.cpu.icache.tags.power_state.pwrStateResidencyTicks::UNDEFINED 1393394182500                       # Cumulative time (in ticks) in various power states (Tick)
system.cpu.interrupts.clk_domain.clock           8000                       # Clock period in ticks (Tick)
system.cpu.itb_walker_cache.blockedCycles::no_mshrs            0                       # number of cycles access was blocked (Cycle)
system.cpu.itb_walker_cache.blockedCycles::no_targets            0                       # number of cycles access was blocked (Cycle)
system.cpu.itb_walker_cache.blockedCauses::no_mshrs            0                       # number of times access was blocked (Count)
system.cpu.itb_walker_cache.blockedCauses::no_targets            0                       # number of times access was blocked (Count)
system.cpu.itb_walker_cache.avgBlocked::no_mshrs          nan                       # average number of cycles each access was blocked ((Cycle/Count))
system.cpu.itb_walker_cache.avgBlocked::no_targets          nan                       # average number of cycles each access was blocked ((Cycle/Count))
system.cpu.itb_walker_cache.replacements            0                       # number of replacements (Count)
system.cpu.itb_walker_cache.power_state.pwrStateResidencyTicks::UNDEFINED 1393394182500                       # Cumulative time (in ticks) in various power states (Tick)
system.cpu.itb_walker_cache.tags.tagsInUse            0                       # Average ticks per tags in use ((Tick/Count))
system.cpu.itb_walker_cache.tags.totalRefs            0                       # Total number of references to valid blocks. (Count)
system.cpu.itb_walker_cache.tags.sampledRefs            0                       # Sample count of references to valid blocks. (Count)
system.cpu.itb_walker_cache.tags.avgRefs          nan                       # Average number of references to valid blocks. ((Count/Count))
system.cpu.itb_walker_cache.tags.warmupTick            0                       # The tick when the warmup percentage was hit. (Tick)
system.cpu.itb_walker_cache.tags.tagAccesses            0                       # Number of tag accesses (Count)
system.cpu.itb_walker_cache.tags.dataAccesses            0                       # Number of data accesses (Count)
system.cpu.itb_walker_cache.tags.power_state.pwrStateResidencyTicks::UNDEFINED 1393394182500                       # Cumulative time (in ticks) in various power states (Tick)
system.cpu.mmu.dtb.rdAccesses                       0                       # TLB accesses on read requests (Count)
system.cpu.mmu.dtb.wrAccesses                       0                       # TLB accesses on write requests (Count)
system.cpu.mmu.dtb.rdMisses                         0                       # TLB misses on read requests (Count)
system.cpu.mmu.dtb.wrMisses                         0                       # TLB misses on write requests (Count)
system.cpu.mmu.dtb.walker.power_state.pwrStateResidencyTicks::UNDEFINED 1393394182500                       # Cumulative time (in ticks) in various power states (Tick)
system.cpu.mmu.itb.rdAccesses                       0                       # TLB accesses on read requests (Count)
system.cpu.mmu.itb.wrAccesses                       0                       # TLB accesses on write requests (Count)
system.cpu.mmu.itb.rdMisses                         0                       # TLB misses on read requests (Count)
system.cpu.mmu.itb.wrMisses                         0                       # TLB misses on write requests (Count)
system.cpu.mmu.itb.walker.power_state.pwrStateResidencyTicks::UNDEFINED 1393394182500                       # Cumulative time (in ticks) in various power states (Tick)
system.cpu.power_state.pwrStateResidencyTicks::OFF 177131481500                       # Cumulative time (in ticks) in various power states (Tick)
system.cpu.thread_0.numInsts                        0                       # Number of Instructions committed (Count)
system.cpu.thread_0.numOps                          0                       # Number of Ops committed (Count)
system.cpu.thread_0.numMemRefs                      0                       # Number of Memory References (Count)
system.cpu.workload.numSyscalls                     0                       # Number of system calls (Count)
system.cpu_clk_domain.clock                       500                       # Clock period in ticks (Tick)
system.cpu_voltage_domain.voltage                   1                       # Voltage in Volts (Volt)
system.l2.demandMisses::switch_cpus.inst           20                       # number of demand (read+write) misses (Count)
system.l2.demandMisses::switch_cpus.data       167960                       # number of demand (read+write) misses (Count)
system.l2.demandMisses::total                  167980                       # number of demand (read+write) misses (Count)
system.l2.overallMisses::switch_cpus.inst           20                       # number of overall misses (Count)
system.l2.overallMisses::switch_cpus.data       167960                       # number of overall misses (Count)
system.l2.overallMisses::total                 167980                       # number of overall misses (Count)
system.l2.demandMissLatency::switch_cpus.inst      4231500                       # number of demand (read+write) miss ticks (Tick)
system.l2.demandMissLatency::switch_cpus.data  34729946000                       # number of demand (read+write) miss ticks (Tick)
system.l2.demandMissLatency::total        34734177500                       # number of demand (read+write) miss ticks (Tick)
system.l2.overallMissLatency::switch_cpus.inst      4231500                       # number of overall miss ticks (Tick)
system.l2.overallMissLatency::switch_cpus.data  34729946000                       # number of overall miss ticks (Tick)
system.l2.overallMissLatency::total       34734177500                       # number of overall miss ticks (Tick)
system.l2.demandAccesses::switch_cpus.inst           20                       # number of demand (read+write) accesses (Count)
system.l2.demandAccesses::switch_cpus.data       167960                       # number of demand (read+write) accesses (Count)
system.l2.demandAccesses::total                167980                       # number of demand (read+write) accesses (Count)
system.l2.overallAccesses::switch_cpus.inst           20                       # number of overall (read+write) accesses (Count)
system.l2.overallAccesses::switch_cpus.data       167960                       # number of overall (read+write) accesses (Count)
system.l2.overallAccesses::total               167980                       # number of overall (read+write) accesses (Count)
system.l2.demandMissRate::switch_cpus.inst            1                       # miss rate for demand accesses (Ratio)
system.l2.demandMissRate::switch_cpus.data            1                       # miss rate for demand accesses (Ratio)
system.l2.demandMissRate::total                     1                       # miss rate for demand accesses (Ratio)
system.l2.overallMissRate::switch_cpus.inst            1                       # miss rate for overall accesses (Ratio)
system.l2.overallMissRate::switch_cpus.data            1                       # miss rate for overall accesses (Ratio)
system.l2.overallMissRate::total                    1                       # miss rate for overall accesses (Ratio)
system.l2.demandAvgMissLatency::switch_cpus.inst       211575                       # average overall miss latency in ticks ((Tick/Count))
system.l2.demandAvgMissLatency::switch_cpus.data 206775.101215                       # average overall miss latency in ticks ((Tick/Count))
system.l2.demandAvgMissLatency::total    206775.672699                       # average overall miss latency in ticks ((Tick/Count))
system.l2.overallAvgMissLatency::switch_cpus.inst       211575                       # average overall miss latency ((Tick/Count))
system.l2.overallAvgMissLatency::switch_cpus.data 206775.101215                       # average overall miss latency ((Tick/Count))
system.l2.overallAvgMissLatency::total   206775.672699                       # average overall miss latency ((Tick/Count))
system.l2.blockedCycles::no_mshrs                   0                       # number of cycles access was blocked (Cycle)
system.l2.blockedCycles::no_targets                 0                       # number of cycles access was blocked (Cycle)
system.l2.blockedCauses::no_mshrs                   0                       # number of times access was blocked (Count)
system.l2.blockedCauses::no_targets                 0                       # number of times access was blocked (Count)
system.l2.avgBlocked::no_mshrs                    nan                       # average number of cycles each access was blocked ((Cycle/Count))
system.l2.avgBlocked::no_targets                  nan                       # average number of cycles each access was blocked ((Cycle/Count))
system.l2.demandMshrMisses::switch_cpus.inst           20                       # number of demand (read+write) MSHR misses (Count)
system.l2.demandMshrMisses::switch_cpus.data       167960                       # number of demand (read+write) MSHR misses (Count)
system.l2.demandMshrMisses::total              167980                       # number of demand (read+write) MSHR misses (Count)
system.l2.overallMshrMisses::switch_cpus.inst           20                       # number of overall MSHR misses (Count)
system.l2.overallMshrMisses::switch_cpus.data       167960                       # number of overall MSHR misses (Count)
system.l2.overallMshrMisses::total             167980                       # number of overall MSHR misses (Count)
system.l2.demandMshrMissLatency::switch_cpus.inst      4221500                       # number of demand (read+write) MSHR miss ticks (Tick)
system.l2.demandMshrMissLatency::switch_cpus.data  34645966000                       # number of demand (read+write) MSHR miss ticks (Tick)
system.l2.demandMshrMissLatency::total    34650187500                       # number of demand (read+write) MSHR miss ticks (Tick)
system.l2.overallMshrMissLatency::switch_cpus.inst      4221500                       # number of overall MSHR miss ticks (Tick)
system.l2.overallMshrMissLatency::switch_cpus.data  34645966000                       # number of overall MSHR miss ticks (Tick)
system.l2.overallMshrMissLatency::total   34650187500                       # number of overall MSHR miss ticks (Tick)
system.l2.demandMshrMissRate::switch_cpus.inst            1                       # mshr miss ratio for demand accesses (Ratio)
system.l2.demandMshrMissRate::switch_cpus.data            1                       # mshr miss ratio for demand accesses (Ratio)
system.l2.demandMshrMissRate::total                 1                       # mshr miss ratio for demand accesses (Ratio)
system.l2.overallMshrMissRate::switch_cpus.inst            1                       # mshr miss ratio for overall accesses (Ratio)
system.l2.overallMshrMissRate::switch_cpus.data            1                       # mshr miss ratio for overall accesses (Ratio)
system.l2.overallMshrMissRate::total                1                       # mshr miss ratio for overall accesses (Ratio)
system.l2.demandAvgMshrMissLatency::switch_cpus.inst       211075                       # average overall mshr miss latency ((Tick/Count))
system.l2.demandAvgMshrMissLatency::switch_cpus.data 206275.101215                       # average overall mshr miss latency ((Tick/Count))
system.l2.demandAvgMshrMissLatency::total 206275.672699                       # average overall mshr miss latency ((Tick/Count))
system.l2.overallAvgMshrMissLatency::switch_cpus.inst       211075                       # average overall mshr miss latency ((Tick/Count))
system.l2.overallAvgMshrMissLatency::switch_cpus.data 206275.101215                       # average overall mshr miss latency ((Tick/Count))
system.l2.overallAvgMshrMissLatency::total 206275.672699                       # average overall mshr miss latency ((Tick/Count))
system.l2.replacements                         167960                       # number of replacements (Count)
system.l2.CleanEvict.mshrMisses::writebacks           20                       # number of CleanEvict MSHR misses (Count)
system.l2.CleanEvict.mshrMisses::total             20                       # number of CleanEvict MSHR misses (Count)
system.l2.CleanEvict.mshrMissRate::writebacks          inf                       # mshr miss rate for CleanEvict accesses (Ratio)
system.l2.CleanEvict.mshrMissRate::total          inf                       # mshr miss rate for CleanEvict accesses (Ratio)
system.l2.ReadCleanReq.misses::switch_cpus.inst           20                       # number of ReadCleanReq misses (Count)
system.l2.ReadCleanReq.misses::total               20                       # number of ReadCleanReq misses (Count)
system.l2.ReadCleanReq.missLatency::switch_cpus.inst      4231500                       # number of ReadCleanReq miss ticks (Tick)
system.l2.ReadCleanReq.missLatency::total      4231500                       # number of ReadCleanReq miss ticks (Tick)
system.l2.ReadCleanReq.accesses::switch_cpus.inst           20                       # number of ReadCleanReq accesses(hits+misses) (Count)
system.l2.ReadCleanReq.accesses::total             20                       # number of ReadCleanReq accesses(hits+misses) (Count)
system.l2.ReadCleanReq.missRate::switch_cpus.inst            1                       # miss rate for ReadCleanReq accesses (Ratio)
system.l2.ReadCleanReq.missRate::total              1                       # miss rate for ReadCleanReq accesses (Ratio)
system.l2.ReadCleanReq.avgMissLatency::switch_cpus.inst       211575                       # average ReadCleanReq miss latency ((Tick/Count))
system.l2.ReadCleanReq.avgMissLatency::total       211575                       # average ReadCleanReq miss latency ((Tick/Count))
system.l2.ReadCleanReq.mshrMisses::switch_cpus.inst           20                       # number of ReadCleanReq MSHR misses (Count)
system.l2.ReadCleanReq.mshrMisses::total           20                       # number of ReadCleanReq MSHR misses (Count)
system.l2.ReadCleanReq.mshrMissLatency::switch_cpus.inst      4221500                       # number of ReadCleanReq MSHR miss ticks (Tick)
system.l2.ReadCleanReq.mshrMissLatency::total      4221500                       # number of ReadCleanReq MSHR miss ticks (Tick)
system.l2.ReadCleanReq.mshrMissRate::switch_cpus.inst            1                       # mshr miss rate for ReadCleanReq accesses (Ratio)
system.l2.ReadCleanReq.mshrMissRate::total            1                       # mshr miss rate for ReadCleanReq accesses (Ratio)
system.l2.ReadCleanReq.avgMshrMissLatency::switch_cpus.inst       211075                       # average ReadCleanReq mshr miss latency ((Tick/Count))
system.l2.ReadCleanReq.avgMshrMissLatency::total       211075                       # average ReadCleanReq mshr miss latency ((Tick/Count))
system.l2.ReadSharedReq.misses::switch_cpus.data       167960                       # number of ReadSharedReq misses (Count)
system.l2.ReadSharedReq.misses::total          167960                       # number of ReadSharedReq misses (Count)
system.l2.ReadSharedReq.missLatency::switch_cpus.data  34729946000                       # number of ReadSharedReq miss ticks (Tick)
system.l2.ReadSharedReq.missLatency::total  34729946000                       # number of ReadSharedReq miss ticks (Tick)
system.l2.ReadSharedReq.accesses::switch_cpus.data       167960                       # number of ReadSharedReq accesses(hits+misses) (Count)
system.l2.ReadSharedReq.accesses::total        167960                       # number of ReadSharedReq accesses(hits+misses) (Count)
system.l2.ReadSharedReq.missRate::switch_cpus.data            1                       # miss rate for ReadSharedReq accesses (Ratio)
system.l2.ReadSharedReq.missRate::total             1                       # miss rate for ReadSharedReq accesses (Ratio)
system.l2.ReadSharedReq.avgMissLatency::switch_cpus.data 206775.101215                       # average ReadSharedReq miss latency ((Tick/Count))
system.l2.ReadSharedReq.avgMissLatency::total 206775.101215                       # average ReadSharedReq miss latency ((Tick/Count))
system.l2.ReadSharedReq.mshrMisses::switch_cpus.data       167960                       # number of ReadSharedReq MSHR misses (Count)
system.l2.ReadSharedReq.mshrMisses::total       167960                       # number of ReadSharedReq MSHR misses (Count)
system.l2.ReadSharedReq.mshrMissLatency::switch_cpus.data  34645966000                       # number of ReadSharedReq MSHR miss ticks (Tick)
system.l2.ReadSharedReq.mshrMissLatency::total  34645966000                       # number of ReadSharedReq MSHR miss ticks (Tick)
system.l2.ReadSharedReq.mshrMissRate::switch_cpus.data            1                       # mshr miss rate for ReadSharedReq accesses (Ratio)
system.l2.ReadSharedReq.mshrMissRate::total            1                       # mshr miss rate for ReadSharedReq accesses (Ratio)
system.l2.ReadSharedReq.avgMshrMissLatency::switch_cpus.data 206275.101215                       # average ReadSharedReq mshr miss latency ((Tick/Count))
system.l2.ReadSharedReq.avgMshrMissLatency::total 206275.101215                       # average ReadSharedReq mshr miss latency ((Tick/Count))
system.l2.WritebackClean.hits::writebacks       167960                       # number of WritebackClean hits (Count)
system.l2.WritebackClean.hits::total           167960                       # number of WritebackClean hits (Count)
system.l2.WritebackClean.accesses::writebacks       167960                       # number of WritebackClean accesses(hits+misses) (Count)
system.l2.WritebackClean.accesses::total       167960                       # number of WritebackClean accesses(hits+misses) (Count)
system.l2.power_state.pwrStateResidencyTicks::UNDEFINED 1393394182500                       # Cumulative time (in ticks) in various power states (Tick)
system.l2.tags.tagsInUse                           64                       # Average ticks per tags in use ((Tick/Count))
system.l2.tags.totalRefs                       168024                       # Total number of references to valid blocks. (Count)
system.l2.tags.sampledRefs                     168024                       # Sample count of references to valid blocks. (Count)
system.l2.tags.avgRefs                              1                       # Average number of references to valid blocks. ((Count/Count))
system.l2.tags.warmupTick                           0                       # The tick when the warmup percentage was hit. (Tick)
system.l2.tags.occupancies::writebacks             64                       # Average occupied blocks per tick, per requestor ((Count/Tick))
system.l2.tags.avgOccs::writebacks                  1                       # Average percentage of cache occupancy ((Ratio/Tick))
system.l2.tags.avgOccs::total                       1                       # Average percentage of cache occupancy ((Ratio/Tick))
system.l2.tags.occupanciesTaskId::1024             64                       # Occupied blocks per task id (Count)
system.l2.tags.ageTaskId_1024::0                    9                       # Occupied blocks per task id, per block age (Count)
system.l2.tags.ageTaskId_1024::1                   55                       # Occupied blocks per task id, per block age (Count)
system.l2.tags.ratioOccsTaskId::1024                1                       # Ratio of occupied blocks and all blocks, per task id (Ratio)
system.l2.tags.tagAccesses                     167960                       # Number of tag accesses (Count)
system.l2.tags.dataAccesses                    167960                       # Number of data accesses (Count)
system.l2.tags.hits                                 0                       # The number of hits in each cache size. (Count)
system.l2.tags.misses                          335960                       # The number of misses in each cache size. (Count)
system.l2.tags.accesses                        335960                       # The number of accesses to the FA LRU cache. (Count)
system.l2.tags.power_state.pwrStateResidencyTicks::UNDEFINED 1393394182500                       # Cumulative time (in ticks) in various power states (Tick)
system.l3.demandMisses::switch_cpus.inst           20                       # number of demand (read+write) misses (Count)
system.l3.demandMisses::switch_cpus.data       167960                       # number of demand (read+write) misses (Count)
system.l3.demandMisses::total                  167980                       # number of demand (read+write) misses (Count)
system.l3.overallMisses::switch_cpus.inst           20                       # number of overall misses (Count)
system.l3.overallMisses::switch_cpus.data       167960                       # number of overall misses (Count)
system.l3.overallMisses::total                 167980                       # number of overall misses (Count)
system.l3.demandMissLatency::switch_cpus.inst      4191500                       # number of demand (read+write) miss ticks (Tick)
system.l3.demandMissLatency::switch_cpus.data  34394026000                       # number of demand (read+write) miss ticks (Tick)
system.l3.demandMissLatency::total        34398217500                       # number of demand (read+write) miss ticks (Tick)
system.l3.overallMissLatency::switch_cpus.inst      4191500                       # number of overall miss ticks (Tick)
system.l3.overallMissLatency::switch_cpus.data  34394026000                       # number of overall miss ticks (Tick)
system.l3.overallMissLatency::total       34398217500                       # number of overall miss ticks (Tick)
system.l3.demandAccesses::switch_cpus.inst           20                       # number of demand (read+write) accesses (Count)
system.l3.demandAccesses::switch_cpus.data       167960                       # number of demand (read+write) accesses (Count)
system.l3.demandAccesses::total                167980                       # number of demand (read+write) accesses (Count)
system.l3.overallAccesses::switch_cpus.inst           20                       # number of overall (read+write) accesses (Count)
system.l3.overallAccesses::switch_cpus.data       167960                       # number of overall (read+write) accesses (Count)
system.l3.overallAccesses::total               167980                       # number of overall (read+write) accesses (Count)
system.l3.demandMissRate::switch_cpus.inst            1                       # miss rate for demand accesses (Ratio)
system.l3.demandMissRate::switch_cpus.data            1                       # miss rate for demand accesses (Ratio)
system.l3.demandMissRate::total                     1                       # miss rate for demand accesses (Ratio)
system.l3.overallMissRate::switch_cpus.inst            1                       # miss rate for overall accesses (Ratio)
system.l3.overallMissRate::switch_cpus.data            1                       # miss rate for overall accesses (Ratio)
system.l3.overallMissRate::total                    1                       # miss rate for overall accesses (Ratio)
system.l3.demandAvgMissLatency::switch_cpus.inst       209575                       # average overall miss latency in ticks ((Tick/Count))
system.l3.demandAvgMissLatency::switch_cpus.data 204775.101215                       # average overall miss latency in ticks ((Tick/Count))
system.l3.demandAvgMissLatency::total    204775.672699                       # average overall miss latency in ticks ((Tick/Count))
system.l3.overallAvgMissLatency::switch_cpus.inst       209575                       # average overall miss latency ((Tick/Count))
system.l3.overallAvgMissLatency::switch_cpus.data 204775.101215                       # average overall miss latency ((Tick/Count))
system.l3.overallAvgMissLatency::total   204775.672699                       # average overall miss latency ((Tick/Count))
system.l3.blockedCycles::no_mshrs                   0                       # number of cycles access was blocked (Cycle)
system.l3.blockedCycles::no_targets                 0                       # number of cycles access was blocked (Cycle)
system.l3.blockedCauses::no_mshrs                   0                       # number of times access was blocked (Count)
system.l3.blockedCauses::no_targets                 0                       # number of times access was blocked (Count)
system.l3.avgBlocked::no_mshrs                    nan                       # average number of cycles each access was blocked ((Cycle/Count))
system.l3.avgBlocked::no_targets                  nan                       # average number of cycles each access was blocked ((Cycle/Count))
system.l3.demandMshrMisses::switch_cpus.inst           20                       # number of demand (read+write) MSHR misses (Count)
system.l3.demandMshrMisses::switch_cpus.data       167960                       # number of demand (read+write) MSHR misses (Count)
system.l3.demandMshrMisses::total              167980                       # number of demand (read+write) MSHR misses (Count)
system.l3.overallMshrMisses::switch_cpus.inst           20                       # number of overall MSHR misses (Count)
system.l3.overallMshrMisses::switch_cpus.data       167960                       # number of overall MSHR misses (Count)
system.l3.overallMshrMisses::total             167980                       # number of overall MSHR misses (Count)
system.l3.demandMshrMissLatency::switch_cpus.inst      3991500                       # number of demand (read+write) MSHR miss ticks (Tick)
system.l3.demandMshrMissLatency::switch_cpus.data  32714426000                       # number of demand (read+write) MSHR miss ticks (Tick)
system.l3.demandMshrMissLatency::total    32718417500                       # number of demand (read+write) MSHR miss ticks (Tick)
system.l3.overallMshrMissLatency::switch_cpus.inst      3991500                       # number of overall MSHR miss ticks (Tick)
system.l3.overallMshrMissLatency::switch_cpus.data  32714426000                       # number of overall MSHR miss ticks (Tick)
system.l3.overallMshrMissLatency::total   32718417500                       # number of overall MSHR miss ticks (Tick)
system.l3.demandMshrMissRate::switch_cpus.inst            1                       # mshr miss ratio for demand accesses (Ratio)
system.l3.demandMshrMissRate::switch_cpus.data            1                       # mshr miss ratio for demand accesses (Ratio)
system.l3.demandMshrMissRate::total                 1                       # mshr miss ratio for demand accesses (Ratio)
system.l3.overallMshrMissRate::switch_cpus.inst            1                       # mshr miss ratio for overall accesses (Ratio)
system.l3.overallMshrMissRate::switch_cpus.data            1                       # mshr miss ratio for overall accesses (Ratio)
system.l3.overallMshrMissRate::total                1                       # mshr miss ratio for overall accesses (Ratio)
system.l3.demandAvgMshrMissLatency::switch_cpus.inst       199575                       # average overall mshr miss latency ((Tick/Count))
system.l3.demandAvgMshrMissLatency::switch_cpus.data 194775.101215                       # average overall mshr miss latency ((Tick/Count))
system.l3.demandAvgMshrMissLatency::total 194775.672699                       # average overall mshr miss latency ((Tick/Count))
system.l3.overallAvgMshrMissLatency::switch_cpus.inst       199575                       # average overall mshr miss latency ((Tick/Count))
system.l3.overallAvgMshrMissLatency::switch_cpus.data 194775.101215                       # average overall mshr miss latency ((Tick/Count))
system.l3.overallAvgMshrMissLatency::total 194775.672699                       # average overall mshr miss latency ((Tick/Count))
system.l3.replacements                         167980                       # number of replacements (Count)
system.l3.CleanEvict.mshrMisses::writebacks           20                       # number of CleanEvict MSHR misses (Count)
system.l3.CleanEvict.mshrMisses::total             20                       # number of CleanEvict MSHR misses (Count)
system.l3.CleanEvict.mshrMissRate::writebacks          inf                       # mshr miss rate for CleanEvict accesses (Ratio)
system.l3.CleanEvict.mshrMissRate::total          inf                       # mshr miss rate for CleanEvict accesses (Ratio)
system.l3.ReadCleanReq.misses::switch_cpus.inst           20                       # number of ReadCleanReq misses (Count)
system.l3.ReadCleanReq.misses::switch_cpus.data       167960                       # number of ReadCleanReq misses (Count)
system.l3.ReadCleanReq.misses::total           167980                       # number of ReadCleanReq misses (Count)
system.l3.ReadCleanReq.missLatency::switch_cpus.inst      4191500                       # number of ReadCleanReq miss ticks (Tick)
system.l3.ReadCleanReq.missLatency::switch_cpus.data  34394026000                       # number of ReadCleanReq miss ticks (Tick)
system.l3.ReadCleanReq.missLatency::total  34398217500                       # number of ReadCleanReq miss ticks (Tick)
system.l3.ReadCleanReq.accesses::switch_cpus.inst           20                       # number of ReadCleanReq accesses(hits+misses) (Count)
system.l3.ReadCleanReq.accesses::switch_cpus.data       167960                       # number of ReadCleanReq accesses(hits+misses) (Count)
system.l3.ReadCleanReq.accesses::total         167980                       # number of ReadCleanReq accesses(hits+misses) (Count)
system.l3.ReadCleanReq.missRate::switch_cpus.inst            1                       # miss rate for ReadCleanReq accesses (Ratio)
system.l3.ReadCleanReq.missRate::switch_cpus.data            1                       # miss rate for ReadCleanReq accesses (Ratio)
system.l3.ReadCleanReq.missRate::total              1                       # miss rate for ReadCleanReq accesses (Ratio)
system.l3.ReadCleanReq.avgMissLatency::switch_cpus.inst       209575                       # average ReadCleanReq miss latency ((Tick/Count))
system.l3.ReadCleanReq.avgMissLatency::switch_cpus.data 204775.101215                       # average ReadCleanReq miss latency ((Tick/Count))
system.l3.ReadCleanReq.avgMissLatency::total 204775.672699                       # average ReadCleanReq miss latency ((Tick/Count))
system.l3.ReadCleanReq.mshrMisses::switch_cpus.inst           20                       # number of ReadCleanReq MSHR misses (Count)
system.l3.ReadCleanReq.mshrMisses::switch_cpus.data       167960                       # number of ReadCleanReq MSHR misses (Count)
system.l3.ReadCleanReq.mshrMisses::total       167980                       # number of ReadCleanReq MSHR misses (Count)
system.l3.ReadCleanReq.mshrMissLatency::switch_cpus.inst      3991500                       # number of ReadCleanReq MSHR miss ticks (Tick)
system.l3.ReadCleanReq.mshrMissLatency::switch_cpus.data  32714426000                       # number of ReadCleanReq MSHR miss ticks (Tick)
system.l3.ReadCleanReq.mshrMissLatency::total  32718417500                       # number of ReadCleanReq MSHR miss ticks (Tick)
system.l3.ReadCleanReq.mshrMissRate::switch_cpus.inst            1                       # mshr miss rate for ReadCleanReq accesses (Ratio)
system.l3.ReadCleanReq.mshrMissRate::switch_cpus.data            1                       # mshr miss rate for ReadCleanReq accesses (Ratio)
system.l3.ReadCleanReq.mshrMissRate::total            1                       # mshr miss rate for ReadCleanReq accesses (Ratio)
system.l3.ReadCleanReq.avgMshrMissLatency::switch_cpus.inst       199575                       # average ReadCleanReq mshr miss latency ((Tick/Count))
system.l3.ReadCleanReq.avgMshrMissLatency::switch_cpus.data 194775.101215                       # average ReadCleanReq mshr miss latency ((Tick/Count))
system.l3.ReadCleanReq.avgMshrMissLatency::total 194775.672699                       # average ReadCleanReq mshr miss latency ((Tick/Count))
system.l3.power_state.pwrStateResidencyTicks::UNDEFINED 1393394182500                       # Cumulative time (in ticks) in various power states (Tick)
system.l3.tags.tagsInUse                         2048                       # Average ticks per tags in use ((Tick/Count))
system.l3.tags.totalRefs                       339746                       # Total number of references to valid blocks. (Count)
system.l3.tags.sampledRefs                     170028                       # Sample count of references to valid blocks. (Count)
system.l3.tags.avgRefs                       1.998177                       # Average number of references to valid blocks. ((Count/Count))
system.l3.tags.warmupTick                           0                       # The tick when the warmup percentage was hit. (Tick)
system.l3.tags.occupancies::cpu.data        12.378797                       # Average occupied blocks per tick, per requestor ((Count/Tick))
system.l3.tags.occupancies::switch_cpus.inst     0.172711                       # Average occupied blocks per tick, per requestor ((Count/Tick))
system.l3.tags.occupancies::switch_cpus.data  2035.448492                       # Average occupied blocks per tick, per requestor ((Count/Tick))
system.l3.tags.avgOccs::cpu.data             0.006044                       # Average percentage of cache occupancy ((Ratio/Tick))
system.l3.tags.avgOccs::switch_cpus.inst     0.000084                       # Average percentage of cache occupancy ((Ratio/Tick))
system.l3.tags.avgOccs::switch_cpus.data     0.993871                       # Average percentage of cache occupancy ((Ratio/Tick))
system.l3.tags.avgOccs::total                       1                       # Average percentage of cache occupancy ((Ratio/Tick))
system.l3.tags.occupanciesTaskId::1024           2048                       # Occupied blocks per task id (Count)
system.l3.tags.ageTaskId_1024::0                    9                       # Occupied blocks per task id, per block age (Count)
system.l3.tags.ageTaskId_1024::1                   86                       # Occupied blocks per task id, per block age (Count)
system.l3.tags.ageTaskId_1024::2                  853                       # Occupied blocks per task id, per block age (Count)
system.l3.tags.ageTaskId_1024::3                 1100                       # Occupied blocks per task id, per block age (Count)
system.l3.tags.ratioOccsTaskId::1024                1                       # Ratio of occupied blocks and all blocks, per task id (Ratio)
system.l3.tags.tagAccesses                    1511820                       # Number of tag accesses (Count)
system.l3.tags.dataAccesses                   1511820                       # Number of data accesses (Count)
system.l3.tags.power_state.pwrStateResidencyTicks::UNDEFINED 1393394182500                       # Cumulative time (in ticks) in various power states (Tick)
system.mem_ctrls.avgPriority_switch_cpus.inst::samples        20.00                       # Average QoS priority value for accepted requests (Count)
system.mem_ctrls.avgPriority_switch_cpus.data::samples    167960.00                       # Average QoS priority value for accepted requests (Count)
system.mem_ctrls.priorityMinLatency      0.000000018750                       # per QoS priority minimum request to response latency (Second)
system.mem_ctrls.priorityMaxLatency      0.000000573000                       # per QoS priority maximum request to response latency (Second)
system.mem_ctrls.numReadWriteTurnArounds            0                       # Number of turnarounds from READ to WRITE (Count)
system.mem_ctrls.numWriteReadTurnArounds            0                       # Number of turnarounds from WRITE to READ (Count)
system.mem_ctrls.numStayReadState              381458                       # Number of times bus staying in READ state (Count)
system.mem_ctrls.numStayWriteState                  0                       # Number of times bus staying in WRITE state (Count)
system.mem_ctrls.readReqs                      167980                       # Number of read requests accepted (Count)
system.mem_ctrls.writeReqs                          0                       # Number of write requests accepted (Count)
system.mem_ctrls.readBursts                    167980                       # Number of controller read bursts, including those serviced by the write queue (Count)
system.mem_ctrls.writeBursts                        0                       # Number of controller write bursts, including those merged in the write queue (Count)
system.mem_ctrls.servicedByWrQ                      0                       # Number of controller read bursts serviced by the write queue (Count)
system.mem_ctrls.mergedWrBursts                     0                       # Number of controller write bursts merged with an existing one (Count)
system.mem_ctrls.neitherReadNorWriteReqs            0                       # Number of requests that are neither read nor write (Count)
system.mem_ctrls.avgRdQLen                       1.00                       # Average read queue length when enqueuing ((Count/Tick))
system.mem_ctrls.avgWrQLen                       0.00                       # Average write queue length when enqueuing ((Count/Tick))
system.mem_ctrls.numRdRetry                         0                       # Number of times read queue was full causing retry (Count)
system.mem_ctrls.numWrRetry                         0                       # Number of times write queue was full causing retry (Count)
system.mem_ctrls.readPktSize::0                     0                       # Read request sizes (log2) (Count)
system.mem_ctrls.readPktSize::1                     0                       # Read request sizes (log2) (Count)
system.mem_ctrls.readPktSize::2                     0                       # Read request sizes (log2) (Count)
system.mem_ctrls.readPktSize::3                     0                       # Read request sizes (log2) (Count)
system.mem_ctrls.readPktSize::4                     0                       # Read request sizes (log2) (Count)
system.mem_ctrls.readPktSize::5                     0                       # Read request sizes (log2) (Count)
system.mem_ctrls.readPktSize::6                167980                       # Read request sizes (log2) (Count)
system.mem_ctrls.writePktSize::0                    0                       # Write request sizes (log2) (Count)
system.mem_ctrls.writePktSize::1                    0                       # Write request sizes (log2) (Count)
system.mem_ctrls.writePktSize::2                    0                       # Write request sizes (log2) (Count)
system.mem_ctrls.writePktSize::3                    0                       # Write request sizes (log2) (Count)
system.mem_ctrls.writePktSize::4                    0                       # Write request sizes (log2) (Count)
system.mem_ctrls.writePktSize::5                    0                       # Write request sizes (log2) (Count)
system.mem_ctrls.writePktSize::6                    0                       # Write request sizes (log2) (Count)
system.mem_ctrls.rdQLenPdf::0                  167979                       # What read queue length does an incoming req see (Count)
system.mem_ctrls.rdQLenPdf::1                       1                       # What read queue length does an incoming req see (Count)
system.mem_ctrls.rdQLenPdf::2                       0                       # What read queue length does an incoming req see (Count)
system.mem_ctrls.rdQLenPdf::3                       0                       # What read queue length does an incoming req see (Count)
system.mem_ctrls.rdQLenPdf::4                       0                       # What read queue length does an incoming req see (Count)
system.mem_ctrls.rdQLenPdf::5                       0                       # What read queue length does an incoming req see (Count)
system.mem_ctrls.rdQLenPdf::6                       0                       # What read queue length does an incoming req see (Count)
system.mem_ctrls.rdQLenPdf::7                       0                       # What read queue length does an incoming req see (Count)
system.mem_ctrls.rdQLenPdf::8                       0                       # What read queue length does an incoming req see (Count)
system.mem_ctrls.rdQLenPdf::9                       0                       # What read queue length does an incoming req see (Count)
system.mem_ctrls.rdQLenPdf::10                      0                       # What read queue length does an incoming req see (Count)
system.mem_ctrls.rdQLenPdf::11                      0                       # What read queue length does an incoming req see (Count)
[...]
system.switch_cpus.committedInstType_0::IntMult            0      0.00%     55.13% # Class of committed instruction (Count)
system.switch_cpus.committedInstType_0::IntDiv            0      0.00%     55.13% # Class of committed instruction (Count)
system.switch_cpus.committedInstType_0::FloatAdd     10757050      6.04%     61.18% # Class of committed instruction (Count)
system.switch_cpus.committedInstType_0::FloatCmp            0      0.00%     61.18% # Class of committed instruction (Count)
system.switch_cpus.committedInstType_0::FloatCvt            0      0.00%     61.18% # Class of committed instruction (Count)
system.switch_cpus.committedInstType_0::FloatMult            0      0.00%     61.18% # Class of committed instruction (Count)
system.switch_cpus.committedInstType_0::FloatMultAcc            0      0.00%     61.18% # Class of committed instruction (Count)
system.switch_cpus.committedInstType_0::FloatDiv            0      0.00%     61.18% # Class of committed instruction (Count)
system.switch_cpus.committedInstType_0::FloatMisc            0      0.00%     61.18% # Class of committed instruction (Count)
system.switch_cpus.committedInstType_0::FloatSqrt            0      0.00%     61.18% # Class of committed instruction (Count)
system.switch_cpus.committedInstType_0::SimdAdd            0      0.00%     61.18% # Class of committed instruction (Count)
system.switch_cpus.committedInstType_0::SimdAddAcc            0      0.00%     61.18% # Class of committed instruction (Count)
system.switch_cpus.committedInstType_0::SimdAlu      4297844      2.42%     63.59% # Class of committed instruction (Count)
system.switch_cpus.committedInstType_0::SimdCmp            0      0.00%     63.59% # Class of committed instruction (Count)
system.switch_cpus.committedInstType_0::SimdCvt            0      0.00%     63.59% # Class of committed instruction (Count)
system.switch_cpus.committedInstType_0::SimdMisc      2686158      1.51%     65.10% # Class of committed instruction (Count)
system.switch_cpus.committedInstType_0::SimdMult            0      0.00%     65.10% # Class of committed instruction (Count)
system.switch_cpus.committedInstType_0::SimdMultAcc            0      0.00%     65.10% # Class of committed instruction (Count)
system.switch_cpus.committedInstType_0::SimdShift            0      0.00%     65.10% # Class of committed instruction (Count)
system.switch_cpus.committedInstType_0::SimdShiftAcc            0      0.00%     65.10% # Class of committed instruction (Count)
system.switch_cpus.committedInstType_0::SimdDiv            0      0.00%     65.10% # Class of committed instruction (Count)
system.switch_cpus.committedInstType_0::SimdSqrt            0      0.00%     65.10% # Class of committed instruction (Count)
system.switch_cpus.committedInstType_0::SimdFloatAdd     16388042      9.21%     74.31% # Class of committed instruction (Count)
system.switch_cpus.committedInstType_0::SimdFloatAlu            0      0.00%     74.31% # Class of committed instruction (Count)
system.switch_cpus.committedInstType_0::SimdFloatCmp            0      0.00%     74.31% # Class of committed instruction (Count)
system.switch_cpus.committedInstType_0::SimdFloatCvt      3223381      1.81%     76.12% # Class of committed instruction (Count)
system.switch_cpus.committedInstType_0::SimdFloatDiv      3223380      1.81%     77.93% # Class of committed instruction (Count)
system.switch_cpus.committedInstType_0::SimdFloatMisc            0      0.00%     77.93% # Class of committed instruction (Count)
system.switch_cpus.committedInstType_0::SimdFloatMult     10217335      5.74%     83.67% # Class of committed instruction (Count)
system.switch_cpus.committedInstType_0::SimdFloatMultAcc            0      0.00%     83.67% # Class of committed instruction (Count)
system.switch_cpus.committedInstType_0::SimdFloatSqrt       537230      0.30%     83.98% # Class of committed instruction (Count)
system.switch_cpus.committedInstType_0::SimdReduceAdd            0      0.00%     83.98% # Class of committed instruction (Count)
system.switch_cpus.committedInstType_0::SimdReduceAlu            0      0.00%     83.98% # Class of committed instruction (Count)
system.switch_cpus.committedInstType_0::SimdReduceCmp            0      0.00%     83.98% # Class of committed instruction (Count)
system.switch_cpus.committedInstType_0::SimdFloatReduceAdd            0      0.00%     83.98% # Class of committed instruction (Count)
system.switch_cpus.committedInstType_0::SimdFloatReduceCmp            0      0.00%     83.98% # Class of committed instruction (Count)
system.switch_cpus.committedInstType_0::SimdAes            0      0.00%     83.98% # Class of committed instruction (Count)
system.switch_cpus.committedInstType_0::SimdAesMix            0      0.00%     83.98% # Class of committed instruction (Count)
system.switch_cpus.committedInstType_0::SimdSha1Hash            0      0.00%     83.98% # Class of committed instruction (Count)
system.switch_cpus.committedInstType_0::SimdSha1Hash2            0      0.00%     83.98% # Class of committed instruction (Count)
system.switch_cpus.committedInstType_0::SimdSha256Hash            0      0.00%     83.98% # Class of committed instruction (Count)
system.switch_cpus.committedInstType_0::SimdSha256Hash2            0      0.00%     83.98% # Class of committed instruction (Count)
system.switch_cpus.committedInstType_0::SimdShaSigma2            0      0.00%     83.98% # Class of committed instruction (Count)
system.switch_cpus.committedInstType_0::SimdShaSigma3            0      0.00%     83.98% # Class of committed instruction (Count)
system.switch_cpus.committedInstType_0::SimdPredAlu            0      0.00%     83.98% # Class of committed instruction (Count)
system.switch_cpus.committedInstType_0::MemRead      4307980      2.42%     86.40% # Class of committed instruction (Count)
system.switch_cpus.committedInstType_0::MemWrite      3492039      1.96%     88.36% # Class of committed instruction (Count)
system.switch_cpus.committedInstType_0::FloatMemRead     18551865     10.43%     98.78% # Class of committed instruction (Count)
system.switch_cpus.committedInstType_0::FloatMemWrite      2163842      1.22%    100.00% # Class of committed instruction (Count)
system.switch_cpus.committedInstType_0::IprAccess            0      0.00%    100.00% # Class of committed instruction (Count)
system.switch_cpus.committedInstType_0::InstPrefetch            0      0.00%    100.00% # Class of committed instruction (Count)
system.switch_cpus.committedInstType_0::total    177950909                       # Class of committed instruction (Count)
system.switch_cpus.branchPred.lookups               0                       # Number of BP lookups (Count)
system.switch_cpus.branchPred.condPredicted            0                       # Number of conditional branches predicted (Count)
system.switch_cpus.branchPred.condIncorrect            0                       # Number of conditional branches incorrect (Count)
system.switch_cpus.branchPred.BTBLookups            0                       # Number of BTB lookups (Count)
system.switch_cpus.branchPred.BTBHits               0                       # Number of BTB hits (Count)
system.switch_cpus.branchPred.BTBHitRatio          nan                       # BTB Hit Ratio (Ratio)
system.switch_cpus.branchPred.RASUsed               0                       # Number of times the RAS was used to get a target. (Count)
system.switch_cpus.branchPred.RASIncorrect            0                       # Number of incorrect RAS predictions. (Count)
system.switch_cpus.branchPred.indirectLookups            0                       # Number of indirect predictor lookups. (Count)
system.switch_cpus.branchPred.indirectHits            0                       # Number of indirect target hits. (Count)
system.switch_cpus.branchPred.indirectMisses            0                       # Number of indirect misses. (Count)
system.switch_cpus.branchPred.indirectMispredicted            0                       # Number of mispredicted indirect branches. (Count)
system.switch_cpus.fetch2.intInstructions            0                       # Number of integer instructions successfully decoded (Count)
system.switch_cpus.fetch2.fpInstructions            0                       # Number of floating point instructions successfully decoded (Count)
system.switch_cpus.fetch2.vecInstructions            0                       # Number of SIMD instructions successfully decoded (Count)
system.switch_cpus.fetch2.loadInstructions            0                       # Number of memory load instructions successfully decoded (Count)
system.switch_cpus.fetch2.storeInstructions            0                       # Number of memory store instructions successfully decoded (Count)
system.switch_cpus.fetch2.amoInstructions            0                       # Number of memory atomic instructions successfully decoded (Count)
system.switch_cpus.mmu.dtb.rdAccesses        23404555                       # TLB accesses on read requests (Count)
system.switch_cpus.mmu.dtb.wrAccesses         5655881                       # TLB accesses on write requests (Count)
system.switch_cpus.mmu.dtb.rdMisses              2636                       # TLB misses on read requests (Count)
system.switch_cpus.mmu.dtb.wrMisses                 1                       # TLB misses on write requests (Count)
system.switch_cpus.mmu.dtb.walker.power_state.pwrStateResidencyTicks::UNDEFINED 1393394182500                       # Cumulative time (in ticks) in various power states (Tick)
system.switch_cpus.mmu.itb.rdAccesses               0                       # TLB accesses on read requests (Count)
system.switch_cpus.mmu.itb.wrAccesses        31462841                       # TLB accesses on write requests (Count)
system.switch_cpus.mmu.itb.rdMisses                 0                       # TLB misses on read requests (Count)
system.switch_cpus.mmu.itb.wrMisses                 7                       # TLB misses on write requests (Count)
system.switch_cpus.mmu.itb.walker.power_state.pwrStateResidencyTicks::UNDEFINED 1393394182500                       # Cumulative time (in ticks) in various power states (Tick)
system.switch_cpus.power_state.pwrStateResidencyTicks::OFF 1393394182500                       # Cumulative time (in ticks) in various power states (Tick)
system.switch_cpus.thread_0.numInsts        100000000                       # Number of Instructions committed (Count)
system.switch_cpus.thread_0.numOps          177950909                       # Number of Ops committed (Count)
system.switch_cpus.thread_0.numMemRefs              0                       # Number of Memory References (Count)
system.tol2bus.transDist::ReadResp             167980                       # Transaction distribution (Count)
system.tol2bus.transDist::WritebackClean       167960                       # Transaction distribution (Count)
system.tol2bus.transDist::CleanEvict           168000                       # Transaction distribution (Count)
system.tol2bus.transDist::ReadCleanReq             20                       # Transaction distribution (Count)
system.tol2bus.transDist::ReadSharedReq        167960                       # Transaction distribution (Count)
system.tol2bus.pktCount_system.cpu.icache.mem_side_port::system.l2.cpu_side_port           60                       # Packet count per connected requestor and responder (Count)
system.tol2bus.pktCount_system.cpu.dcache.mem_side_port::system.l2.cpu_side_port       503880                       # Packet count per connected requestor and responder (Count)
system.tol2bus.pktCount::total                 503940                       # Packet count per connected requestor and responder (Count)
system.tol2bus.pktSize_system.cpu.icache.mem_side_port::system.l2.cpu_side_port         1280                       # Cumulative packet size per connected requestor and responder (Byte)
system.tol2bus.pktSize_system.cpu.dcache.mem_side_port::system.l2.cpu_side_port     21498880                       # Cumulative packet size per connected requestor and responder (Byte)
system.tol2bus.pktSize::total                21500160                       # Cumulative packet size per connected requestor and responder (Byte)
system.tol2bus.snoops                          167980                       # Total snoops (Count)
system.tol2bus.snoopTraffic                         0                       # Total snoop traffic (Byte)
system.tol2bus.snoopFanout::samples            335960                       # Request fanout histogram (Count)
system.tol2bus.snoopFanout::mean             0.000060                       # Request fanout histogram (Count)
system.tol2bus.snoopFanout::stdev            0.007715                       # Request fanout histogram (Count)
system.tol2bus.snoopFanout::underflows              0      0.00%      0.00% # Request fanout histogram (Count)
system.tol2bus.snoopFanout::0                  335940     99.99%     99.99% # Request fanout histogram (Count)
system.tol2bus.snoopFanout::1                      20      0.01%    100.00% # Request fanout histogram (Count)
system.tol2bus.snoopFanout::2                       0      0.00%    100.00% # Request fanout histogram (Count)
system.tol2bus.snoopFanout::3                       0      0.00%    100.00% # Request fanout histogram (Count)
system.tol2bus.snoopFanout::4                       0      0.00%    100.00% # Request fanout histogram (Count)
system.tol2bus.snoopFanout::overflows               0      0.00%    100.00% # Request fanout histogram (Count)
system.tol2bus.snoopFanout::min_value               0                       # Request fanout histogram (Count)
system.tol2bus.snoopFanout::max_value               1                       # Request fanout histogram (Count)
system.tol2bus.snoopFanout::total              335960                       # Request fanout histogram (Count)
system.tol2bus.power_state.pwrStateResidencyTicks::UNDEFINED 1393394182500                       # Cumulative time (in ticks) in various power states (Tick)
system.tol2bus.reqLayer0.occupancy          335940000                       # Layer occupancy (ticks) (Tick)
system.tol2bus.reqLayer0.utilization              0.0                       # Layer utilization (Ratio)
system.tol2bus.respLayer0.occupancy             30000                       # Layer occupancy (ticks) (Tick)
system.tol2bus.respLayer0.utilization             0.0                       # Layer utilization (Ratio)
system.tol2bus.respLayer1.occupancy         251940000                       # Layer occupancy (ticks) (Tick)
system.tol2bus.respLayer1.utilization             0.0                       # Layer utilization (Ratio)
system.tol2bus.snoop_filter.totRequests        335960                       # Total number of requests made to the snoop filter. (Count)
system.tol2bus.snoop_filter.hitSingleRequests       167980                       # Number of requests hitting in the snoop filter with a single holder of the requested data. (Count)
system.tol2bus.snoop_filter.hitMultiRequests            0                       # Number of requests hitting in the snoop filter with multiple (>1) holders of the requested data. (Count)
system.tol2bus.snoop_filter.totSnoops              20                       # Total number of snoops made to the snoop filter. (Count)
system.tol2bus.snoop_filter.hitSingleSnoops           20                       # Number of snoops hitting in the snoop filter with a single holder of the requested data. (Count)
system.tol2bus.snoop_filter.hitMultiSnoops            0                       # Number of snoops hitting in the snoop filter with multiple (>1) holders of the requested data. (Count)
system.tol3bus.transDist::ReadResp             167980                       # Transaction distribution (Count)
system.tol3bus.transDist::CleanEvict           335960                       # Transaction distribution (Count)
system.tol3bus.transDist::ReadCleanReq         167980                       # Transaction distribution (Count)
system.tol3bus.pktCount_system.l2.mem_side_port::system.l3.cpu_side_port       503940                       # Packet count per connected requestor and responder (Count)
system.tol3bus.pktSize_system.l2.mem_side_port::system.l3.cpu_side_port     10750720                       # Cumulative packet size per connected requestor and responder (Byte)
system.tol3bus.snoops                          167980                       # Total snoops (Count)
system.tol3bus.snoopTraffic                         0                       # Total snoop traffic (Byte)
system.tol3bus.snoopFanout::samples            335960                       # Request fanout histogram (Count)
system.tol3bus.snoopFanout::mean             0.000060                       # Request fanout histogram (Count)
system.tol3bus.snoopFanout::stdev            0.007715                       # Request fanout histogram (Count)
system.tol3bus.snoopFanout::underflows              0      0.00%      0.00% # Request fanout histogram (Count)
system.tol3bus.snoopFanout::0                  335940     99.99%     99.99% # Request fanout histogram (Count)
system.tol3bus.snoopFanout::1                      20      0.01%    100.00% # Request fanout histogram (Count)
system.tol3bus.snoopFanout::overflows               0      0.00%    100.00% # Request fanout histogram (Count)
system.tol3bus.snoopFanout::min_value               0                       # Request fanout histogram (Count)
system.tol3bus.snoopFanout::max_value               1                       # Request fanout histogram (Count)
system.tol3bus.snoopFanout::total              335960                       # Request fanout histogram (Count)
system.tol3bus.power_state.pwrStateResidencyTicks::UNDEFINED 1393394182500                       # Cumulative time (in ticks) in various power states (Tick)
system.tol3bus.reqLayer0.occupancy          167980000                       # Layer occupancy (ticks) (Tick)
system.tol3bus.reqLayer0.utilization              0.0                       # Layer utilization (Ratio)
system.tol3bus.respLayer0.occupancy         251970000                       # Layer occupancy (ticks) (Tick)
system.tol3bus.respLayer0.utilization             0.0                       # Layer utilization (Ratio)
system.tol3bus.snoop_filter.totRequests        335960                       # Total number of requests made to the snoop filter. (Count)
system.tol3bus.snoop_filter.hitSingleRequests       167980                       # Number of requests hitting in the snoop filter with a single holder of the requested data. (Count)
system.tol3bus.snoop_filter.hitMultiRequests            0                       # Number of requests hitting in the snoop filter with multiple (>1) holders of the requested data. (Count)
system.tol3bus.snoop_filter.totSnoops              20                       # Total number of snoops made to the snoop filter. (Count)
system.tol3bus.snoop_filter.hitSingleSnoops           20                       # Number of snoops hitting in the snoop filter with a single holder of the requested data. (Count)
system.tol3bus.snoop_filter.hitMultiSnoops            0                       # Number of snoops hitting in the snoop filter with multiple (>1) holders of the requested data. (Count)
system.voltage_domain.voltage                       1                       # Voltage in Volts (Volt)
system.workload.inst.arm                            0                       # number of arm instructions executed (Count)
system.workload.inst.quiesce                        0                       # number of quiesce instructions executed (Count)
system.switch_cpus.idleCycles                70191409                       # Total number of cycles that the object has spent stopped (Unspecified)
system.switch_cpus.tickCycles               284071554                       # Number of cycles that the object actually ticked (Unspecified)

---------- End Simulation Statistics   ----------
