
---------- Begin Simulation Statistics ----------
simSeconds                                   1.242290                       # Number of seconds simulated (Second)
simTicks                                 1242290337500                       # Number of ticks simulated (Tick)
finalTick                                2318062271000                       # Number of ticks from beginning of simulation (restored from checkpoints and never reset) (Tick)
simFreq                                  1000000000000                       # The number of ticks per simulated second ((Tick/Second))
hostSeconds                                    754.46                       # Real time elapsed on the host (Second)
hostTickRate                               1646600113                       # The number of ticks simulated per host second (ticks/s) ((Tick/Second))
hostMemory                                    8837316                       # Number of bytes of host memory used (Byte)
simInsts                                   1100000001                       # Number of instructions simulated (Count)
simOps                                     1997606153                       # Number of ops (including micro ops) simulated (Count)
hostInstRate                                  1458000                       # Simulator instruction rate (inst/s) ((Count/Second))
hostOpRate                                    2647737                       # Simulator op (including micro ops) rate (op/s) ((Count/Second))
system.clk_domain.clock                          1000                       # Clock period in ticks (Tick)
system.cpu.numCycles                                0                       # Number of cpu cycles simulated (Cycle)
system.cpu.numWorkItemsStarted                      0                       # Number of work items this cpu started (Count)
system.cpu.numWorkItemsCompleted                    0                       # Number of work items this cpu completed (Count)
system.cpu.dcache.demandHits::switch_cpus.data     45353585                       # number of demand (read+write) hits (Count)
system.cpu.dcache.demandHits::total          45353585                       # number of demand (read+write) hits (Count)
system.cpu.dcache.overallHits::switch_cpus.data     45353585                       # number of overall hits (Count)
system.cpu.dcache.overallHits::total         45353585                       # number of overall hits (Count)
system.cpu.dcache.demandMisses::switch_cpus.data      8242363                       # number of demand (read+write) misses (Count)
system.cpu.dcache.demandMisses::total         8242363                       # number of demand (read+write) misses (Count)
system.cpu.dcache.overallMisses::switch_cpus.data      8242363                       # number of overall misses (Count)
system.cpu.dcache.overallMisses::total        8242363                       # number of overall misses (Count)
system.cpu.dcache.demandMissLatency::switch_cpus.data 1193729366500                       # number of demand (read+write) miss ticks (Tick)
system.cpu.dcache.demandMissLatency::total 1193729366500                       # number of demand (read+write) miss ticks (Tick)
system.cpu.dcache.overallMissLatency::switch_cpus.data 1193729366500                       # number of overall miss ticks (Tick)
system.cpu.dcache.overallMissLatency::total 1193729366500                       # number of overall miss ticks (Tick)
system.cpu.dcache.demandAccesses::switch_cpus.data     53595948                       # number of demand (read+write) accesses (Count)
system.cpu.dcache.demandAccesses::total      53595948                       # number of demand (read+write) accesses (Count)
system.cpu.dcache.overallAccesses::switch_cpus.data     53595948                       # number of overall (read+write) accesses (Count)
system.cpu.dcache.overallAccesses::total     53595948                       # number of overall (read+write) accesses (Count)
system.cpu.dcache.demandMissRate::switch_cpus.data     0.153787                       # miss rate for demand accesses (Ratio)
system.cpu.dcache.demandMissRate::total      0.153787                       # miss rate for demand accesses (Ratio)
system.cpu.dcache.overallMissRate::switch_cpus.data     0.153787                       # miss rate for overall accesses (Ratio)
system.cpu.dcache.overallMissRate::total     0.153787                       # miss rate for overall accesses (Ratio)
system.cpu.dcache.demandAvgMissLatency::switch_cpus.data 144828.536004                       # average overall miss latency in ticks ((Tick/Count))
system.cpu.dcache.demandAvgMissLatency::total 144828.536004                       # average overall miss latency in ticks ((Tick/Count))
system.cpu.dcache.overallAvgMissLatency::switch_cpus.data 144828.536004                       # average overall miss latency ((Tick/Count))
system.cpu.dcache.overallAvgMissLatency::total 144828.536004                       # average overall miss latency ((Tick/Count))
system.cpu.dcache.blockedCycles::no_mshrs            0                       # number of cycles access was blocked (Cycle)
system.cpu.dcache.blockedCycles::no_targets            0                       # number of cycles access was blocked (Cycle)
system.cpu.dcache.blockedCauses::no_mshrs            0                       # number of times access was blocked (Count)
system.cpu.dcache.blockedCauses::no_targets            0                       # number of times access was blocked (Count)
system.cpu.dcache.avgBlocked::no_mshrs            nan                       # average number of cycles each access was blocked ((Cycle/Count))
system.cpu.dcache.avgBlocked::no_targets          nan                       # average number of cycles each access was blocked ((Cycle/Count))
system.cpu.dcache.writebacks::writebacks       775423                       # number of writebacks (Count)
system.cpu.dcache.writebacks::total            775423                       # number of writebacks (Count)
system.cpu.dcache.demandMshrHits::switch_cpus.data       536161                       # number of demand (read+write) MSHR hits (Count)
system.cpu.dcache.demandMshrHits::total        536161                       # number of demand (read+write) MSHR hits (Count)
system.cpu.dcache.overallMshrHits::switch_cpus.data       536161                       # number of overall MSHR hits (Count)
system.cpu.dcache.overallMshrHits::total       536161                       # number of overall MSHR hits (Count)
system.cpu.dcache.demandMshrMisses::switch_cpus.data      7706202                       # number of demand (read+write) MSHR misses (Count)
system.cpu.dcache.demandMshrMisses::total      7706202                       # number of demand (read+write) MSHR misses (Count)
system.cpu.dcache.overallMshrMisses::switch_cpus.data      7706202                       # number of overall MSHR misses (Count)
system.cpu.dcache.overallMshrMisses::total      7706202                       # number of overall MSHR misses (Count)
system.cpu.dcache.demandMshrMissLatency::switch_cpus.data 1112746272500                       # number of demand (read+write) MSHR miss ticks (Tick)
system.cpu.dcache.demandMshrMissLatency::total 1112746272500                       # number of demand (read+write) MSHR miss ticks (Tick)
system.cpu.dcache.overallMshrMissLatency::switch_cpus.data 1112746272500                       # number of overall MSHR miss ticks (Tick)
system.cpu.dcache.overallMshrMissLatency::total 1112746272500                       # number of overall MSHR miss ticks (Tick)
system.cpu.dcache.demandMshrMissRate::switch_cpus.data     0.143783                       # mshr miss ratio for demand accesses (Ratio)
system.cpu.dcache.demandMshrMissRate::total     0.143783                       # mshr miss ratio for demand accesses (Ratio)
system.cpu.dcache.overallMshrMissRate::switch_cpus.data     0.143783                       # mshr miss ratio for overall accesses (Ratio)
system.cpu.dcache.overallMshrMissRate::total     0.143783                       # mshr miss ratio for overall accesses (Ratio)
system.cpu.dcache.demandAvgMshrMissLatency::switch_cpus.data 144396.198348                       # average overall mshr miss latency ((Tick/Count))
system.cpu.dcache.demandAvgMshrMissLatency::total 144396.198348                       # average overall mshr miss latency ((Tick/Count))
system.cpu.dcache.overallAvgMshrMissLatency::switch_cpus.data 144396.198348                       # average overall mshr miss latency ((Tick/Count))
system.cpu.dcache.overallAvgMshrMissLatency::total 144396.198348                       # average overall mshr miss latency ((Tick/Count))
system.cpu.dcache.replacements                7706202                       # number of replacements (Count)
system.cpu.dcache.ReadReq.hits::switch_cpus.data     36834088                       # number of ReadReq hits (Count)
system.cpu.dcache.ReadReq.hits::total        36834088                       # number of ReadReq hits (Count)
system.cpu.dcache.ReadReq.misses::switch_cpus.data      7563440                       # number of ReadReq misses (Count)
system.cpu.dcache.ReadReq.misses::total       7563440                       # number of ReadReq misses (Count)
system.cpu.dcache.ReadReq.missLatency::switch_cpus.data 1125086172000                       # number of ReadReq miss ticks (Tick)
system.cpu.dcache.ReadReq.missLatency::total 1125086172000                       # number of ReadReq miss ticks (Tick)
system.cpu.dcache.ReadReq.accesses::switch_cpus.data     44397528                       # number of ReadReq accesses(hits+misses) (Count)
system.cpu.dcache.ReadReq.accesses::total     44397528                       # number of ReadReq accesses(hits+misses) (Count)
system.cpu.dcache.ReadReq.missRate::switch_cpus.data     0.170357                       # miss rate for ReadReq accesses (Ratio)
system.cpu.dcache.ReadReq.missRate::total     0.170357                       # miss rate for ReadReq accesses (Ratio)
system.cpu.dcache.ReadReq.avgMissLatency::switch_cpus.data 148753.235565                       # average ReadReq miss latency ((Tick/Count))
system.cpu.dcache.ReadReq.avgMissLatency::total 148753.235565                       # average ReadReq miss latency ((Tick/Count))
system.cpu.dcache.ReadReq.mshrHits::switch_cpus.data       239508                       # number of ReadReq MSHR hits (Count)
system.cpu.dcache.ReadReq.mshrHits::total       239508                       # number of ReadReq MSHR hits (Count)
system.cpu.dcache.ReadReq.mshrMisses::switch_cpus.data      7323932                       # number of ReadReq MSHR misses (Count)
system.cpu.dcache.ReadReq.mshrMisses::total      7323932                       # number of ReadReq MSHR misses (Count)
system.cpu.dcache.ReadReq.mshrMissLatency::switch_cpus.data 1076839819500                       # number of ReadReq MSHR miss ticks (Tick)
system.cpu.dcache.ReadReq.mshrMissLatency::total 1076839819500                       # number of ReadReq MSHR miss ticks (Tick)
system.cpu.dcache.ReadReq.mshrMissRate::switch_cpus.data     0.164963                       # mshr miss rate for ReadReq accesses (Ratio)
system.cpu.dcache.ReadReq.mshrMissRate::total     0.164963                       # mshr miss rate for ReadReq accesses (Ratio)
system.cpu.dcache.ReadReq.avgMshrMissLatency::switch_cpus.data 147030.286395                       # average ReadReq mshr miss latency ((Tick/Count))
system.cpu.dcache.ReadReq.avgMshrMissLatency::total 147030.286395                       # average ReadReq mshr miss latency ((Tick/Count))
system.cpu.dcache.WriteReq.hits::switch_cpus.data      8519497                       # number of WriteReq hits (Count)
system.cpu.dcache.WriteReq.hits::total        8519497                       # number of WriteReq hits (Count)
system.cpu.dcache.WriteReq.misses::switch_cpus.data       678923                       # number of WriteReq misses (Count)
system.cpu.dcache.WriteReq.misses::total       678923                       # number of WriteReq misses (Count)
system.cpu.dcache.WriteReq.missLatency::switch_cpus.data  68643194500                       # number of WriteReq miss ticks (Tick)
system.cpu.dcache.WriteReq.missLatency::total  68643194500                       # number of WriteReq miss ticks (Tick)
system.cpu.dcache.WriteReq.accesses::switch_cpus.data      9198420                       # number of WriteReq accesses(hits+misses) (Count)
system.cpu.dcache.WriteReq.accesses::total      9198420                       # number of WriteReq accesses(hits+misses) (Count)
system.cpu.dcache.WriteReq.missRate::switch_cpus.data     0.073809                       # miss rate for WriteReq accesses (Ratio)
system.cpu.dcache.WriteReq.missRate::total     0.073809                       # miss rate for WriteReq accesses (Ratio)
system.cpu.dcache.WriteReq.avgMissLatency::switch_cpus.data 101106.008340                       # average WriteReq miss latency ((Tick/Count))
system.cpu.dcache.WriteReq.avgMissLatency::total 101106.008340                       # average WriteReq miss latency ((Tick/Count))
system.cpu.dcache.WriteReq.mshrHits::switch_cpus.data       296653                       # number of WriteReq MSHR hits (Count)
system.cpu.dcache.WriteReq.mshrHits::total       296653                       # number of WriteReq MSHR hits (Count)
system.cpu.dcache.WriteReq.mshrMisses::switch_cpus.data       382270                       # number of WriteReq MSHR misses (Count)
system.cpu.dcache.WriteReq.mshrMisses::total       382270                       # number of WriteReq MSHR misses (Count)
system.cpu.dcache.WriteReq.mshrMissLatency::switch_cpus.data  35906453000                       # number of WriteReq MSHR miss ticks (Tick)
system.cpu.dcache.WriteReq.mshrMissLatency::total  35906453000                       # number of WriteReq MSHR miss ticks (Tick)
system.cpu.dcache.WriteReq.mshrMissRate::switch_cpus.data     0.041558                       # mshr miss rate for WriteReq accesses (Ratio)
system.cpu.dcache.WriteReq.mshrMissRate::total     0.041558                       # mshr miss rate for WriteReq accesses (Ratio)
system.cpu.dcache.WriteReq.avgMshrMissLatency::switch_cpus.data 93929.560258                       # average WriteReq mshr miss latency ((Tick/Count))
system.cpu.dcache.WriteReq.avgMshrMissLatency::total 93929.560258                       # average WriteReq mshr miss latency ((Tick/Count))
system.cpu.dcache.power_state.pwrStateResidencyTicks::UNDEFINED 2318062271000                       # Cumulative time (in ticks) in various power states (Tick)
system.cpu.dcache.tags.tagsInUse                  256                       # Average ticks per tags in use ((Tick/Count))
system.cpu.dcache.tags.totalRefs             53068021                       # Total number of references to valid blocks. (Count)
system.cpu.dcache.tags.sampledRefs            7706458                       # Sample count of references to valid blocks. (Count)
system.cpu.dcache.tags.avgRefs               6.886175                       # Average number of references to valid blocks. ((Count/Count))
system.cpu.dcache.tags.warmupTick                   0                       # The tick when the warmup percentage was hit. (Tick)
system.cpu.dcache.tags.occupancies::cpu.data     0.013588                       # Average occupied blocks per tick, per requestor ((Count/Tick))
system.cpu.dcache.tags.occupancies::switch_cpus.data   255.986412                       # Average occupied blocks per tick, per requestor ((Count/Tick))
system.cpu.dcache.tags.avgOccs::cpu.data     0.000053                       # Average percentage of cache occupancy ((Ratio/Tick))
system.cpu.dcache.tags.avgOccs::switch_cpus.data     0.999947                       # Average percentage of cache occupancy ((Ratio/Tick))
system.cpu.dcache.tags.avgOccs::total               1                       # Average percentage of cache occupancy ((Ratio/Tick))
system.cpu.dcache.tags.occupanciesTaskId::1024          256                       # Occupied blocks per task id (Count)
system.cpu.dcache.tags.ageTaskId_1024::0           67                       # Occupied blocks per task id, per block age (Count)
system.cpu.dcache.tags.ageTaskId_1024::1          170                       # Occupied blocks per task id, per block age (Count)
system.cpu.dcache.tags.ageTaskId_1024::2           19                       # Occupied blocks per task id, per block age (Count)
system.cpu.dcache.tags.ratioOccsTaskId::1024            1                       # Ratio of occupied blocks and all blocks, per task id (Ratio)
system.cpu.dcache.tags.tagAccesses           61302150                       # Number of tag accesses (Count)
system.cpu.dcache.tags.dataAccesses          61302150                       # Number of data accesses (Count)
system.cpu.dcache.tags.power_state.pwrStateResidencyTicks::UNDEFINED 2318062271000                       # Cumulative time (in ticks) in various power states (Tick)
system.cpu.dtb_walker_cache.blockedCycles::no_mshrs            0                       # number of cycles access was blocked (Cycle)
system.cpu.dtb_walker_cache.blockedCycles::no_targets            0                       # number of cycles access was blocked (Cycle)
system.cpu.dtb_walker_cache.blockedCauses::no_mshrs            0                       # number of times access was blocked (Count)
system.cpu.dtb_walker_cache.blockedCauses::no_targets            0                       # number of times access was blocked (Count)
system.cpu.dtb_walker_cache.avgBlocked::no_mshrs          nan                       # average number of cycles each access was blocked ((Cycle/Count))
system.cpu.dtb_walker_cache.avgBlocked::no_targets          nan                       # average number of cycles each access was blocked ((Cycle/Count))
system.cpu.dtb_walker_cache.replacements            0                       # number of replacements (Count)
system.cpu.dtb_walker_cache.power_state.pwrStateResidencyTicks::UNDEFINED 2318062271000                       # Cumulative time (in ticks) in various power states (Tick)
system.cpu.dtb_walker_cache.tags.tagsInUse            0                       # Average ticks per tags in use ((Tick/Count))
system.cpu.dtb_walker_cache.tags.totalRefs            0                       # Total number of references to valid blocks. (Count)
system.cpu.dtb_walker_cache.tags.sampledRefs            0                       # Sample count of references to valid blocks. (Count)
system.cpu.dtb_walker_cache.tags.avgRefs          nan                       # Average number of references to valid blocks. ((Count/Count))
system.cpu.dtb_walker_cache.tags.warmupTick            0                       # The tick when the warmup percentage was hit. (Tick)
system.cpu.dtb_walker_cache.tags.tagAccesses            0                       # Number of tag accesses (Count)
system.cpu.dtb_walker_cache.tags.dataAccesses            0                       # Number of data accesses (Count)
system.cpu.dtb_walker_cache.tags.power_state.pwrStateResidencyTicks::UNDEFINED 2318062271000                       # Cumulative time (in ticks) in various power states (Tick)
system.cpu.exec_context.thread_0.numInsts            0                       # Number of instructions committed (Count)
system.cpu.exec_context.thread_0.numOps             0                       # Number of ops (including micro ops) committed (Count)
system.cpu.exec_context.thread_0.numIntAluAccesses            0                       # Number of integer alu accesses (Count)
system.cpu.exec_context.thread_0.numFpAluAccesses            0                       # Number of float alu accesses (Count)
system.cpu.exec_context.thread_0.numVecAluAccesses            0                       # Number of vector alu accesses (Count)
system.cpu.exec_context.thread_0.numCallsReturns            0                       # Number of times a function call or return occured (Count)
system.cpu.exec_context.thread_0.numCondCtrlInsts            0                       # Number of instructions that are conditional controls (Count)
system.cpu.exec_context.thread_0.numIntInsts            0                       # Number of integer instructions (Count)
system.cpu.exec_context.thread_0.numFpInsts            0                       # Number of float instructions (Count)
system.cpu.exec_context.thread_0.numVecInsts            0                       # Number of vector instructions (Count)
system.cpu.exec_context.thread_0.numIntRegReads            0                       # Number of times the integer registers were read (Count)
system.cpu.exec_context.thread_0.numIntRegWrites            0                       # Number of times the integer registers were written (Count)
system.cpu.exec_context.thread_0.numFpRegReads            0                       # Number of times the floating registers were read (Count)
system.cpu.exec_context.thread_0.numFpRegWrites            0                       # Number of times the floating registers were written (Count)
system.cpu.exec_context.thread_0.numVecRegReads            0                       # Number of times the vector registers were read (Count)
system.cpu.exec_context.thread_0.numVecRegWrites            0                       # Number of times the vector registers were written (Count)
system.cpu.exec_context.thread_0.numVecPredRegReads            0                       # Number of times the predicate registers were read (Count)
system.cpu.exec_context.thread_0.numVecPredRegWrites            0                       # Number of times the predicate registers were written (Count)
system.cpu.exec_context.thread_0.numMiscRegReads            0                       # Number of times the Misc registers were read (Count)
system.cpu.exec_context.thread_0.numMiscRegWrites            0                       # Number of times the Misc registers were written (Count)
system.cpu.exec_context.thread_0.numMemRefs            0                       # Number of memory refs (Count)
system.cpu.exec_context.thread_0.numLoadInsts            0                       # Number of load instructions (Count)
system.cpu.exec_context.thread_0.numStoreInsts            0                       # Number of store instructions (Count)
system.cpu.exec_context.thread_0.numIdleCycles            0                       # Number of idle cycles (Cycle)
system.cpu.exec_context.thread_0.numBusyCycles            0                       # Number of busy cycles (Cycle)
system.cpu.exec_context.thread_0.notIdleFraction            1                       # Percentage of non-idle cycles (Ratio)
system.cpu.exec_context.thread_0.idleFraction            0                       # Percentage of idle cycles (Ratio)
system.cpu.exec_context.thread_0.statExecutedInstType::No_OpClass            0                       # Class of executed instruction. (Count)
system.cpu.exec_context.thread_0.statExecutedInstType::IntAlu            0                       # Class of executed instruction. (Count)
system.cpu.exec_context.thread_0.statExecutedInstType::IntMult            0                       # Class of executed instruction. (Count)
system.cpu.exec_context.thread_0.statExecutedInstType::IntDiv            0                       # Class of executed instruction. (Count)
system.cpu.exec_context.thread_0.statExecutedInstType::FloatAdd            0                       # Class of executed instruction. (Count)
system.cpu.exec_context.thread_0.statExecutedInstType::FloatCmp            0                       # Class of executed instruction. (Count)
system.cpu.exec_context.thread_0.statExecutedInstType::FloatCvt            0                       # Class of executed instruction. (Count)
system.cpu.exec_context.thread_0.statExecutedInstType::FloatMult            0                       # Class of executed instruction. (Count)
system.cpu.exec_context.thread_0.statExecutedInstType::FloatMultAcc            0                       # Class of executed instruction. (Count)
system.cpu.exec_context.thread_0.statExecutedInstType::FloatDiv            0                       # Class of executed instruction. (Count)
system.cpu.exec_context.thread_0.statExecutedInstType::FloatMisc            0                       # Class of executed instruction. (Count)
system.cpu.exec_context.thread_0.statExecutedInstType::FloatSqrt            0                       # Class of executed instruction. (Count)
system.cpu.exec_context.thread_0.statExecutedInstType::SimdAdd            0                       # Class of executed instruction. (Count)
system.cpu.exec_context.thread_0.statExecutedInstType::SimdAddAcc            0                       # Class of executed instruction. (Count)
system.cpu.exec_context.thread_0.statExecutedInstType::SimdAlu            0                       # Class of executed instruction. (Count)
system.cpu.exec_context.thread_0.statExecutedInstType::SimdCmp            0                       # Class of executed instruction. (Count)
system.cpu.exec_context.thread_0.statExecutedInstType::SimdCvt            0                       # Class of executed instruction. (Count)
system.cpu.exec_context.thread_0.statExecutedInstType::SimdMisc            0                       # Class of executed instruction. (Count)
system.cpu.exec_context.thread_0.statExecutedInstType::SimdMult            0                       # Class of executed instruction. (Count)
system.cpu.exec_context.thread_0.statExecutedInstType::SimdMultAcc            0                       # Class of executed instruction. (Count)
system.cpu.exec_context.thread_0.statExecutedInstType::SimdShift            0                       # Class of executed instruction. (Count)
system.cpu.exec_context.thread_0.statExecutedInstType::SimdShiftAcc            0                       # Class of executed instruction. (Count)
system.cpu.exec_context.thread_0.statExecutedInstType::SimdDiv            0                       # Class of executed instruction. (Count)
system.cpu.exec_context.thread_0.statExecutedInstType::SimdSqrt            0                       # Class of executed instruction. (Count)
system.cpu.exec_context.thread_0.statExecutedInstType::SimdFloatAdd            0                       # Class of executed instruction. (Count)
system.cpu.exec_context.thread_0.statExecutedInstType::SimdFloatAlu            0                       # Class of executed instruction. (Count)
system.cpu.exec_context.thread_0.statExecutedInstType::SimdFloatCmp            0                       # Class of executed instruction. (Count)
system.cpu.exec_context.thread_0.statExecutedInstType::SimdFloatCvt            0                       # Class of executed instruction. (Count)
system.cpu.exec_context.thread_0.statExecutedInstType::SimdFloatDiv            0                       # Class of executed instruction. (Count)
system.cpu.exec_context.thread_0.statExecutedInstType::SimdFloatMisc            0                       # Class of executed instruction. (Count)
system.cpu.exec_context.thread_0.statExecutedInstType::SimdFloatMult            0                       # Class of executed instruction. (Count)
system.cpu.exec_context.thread_0.statExecutedInstType::SimdFloatMultAcc            0                       # Class of executed instruction. (Count)
system.cpu.exec_context.thread_0.statExecutedInstType::SimdFloatSqrt            0                       # Class of executed instruction. (Count)
system.cpu.exec_context.thread_0.statExecutedInstType::SimdReduceAdd            0                       # Class of executed instruction. (Count)
system.cpu.exec_context.thread_0.statExecutedInstType::SimdReduceAlu            0                       # Class of executed instruction. (Count)
system.cpu.exec_context.thread_0.statExecutedInstType::SimdReduceCmp            0                       # Class of executed instruction. (Count)
system.cpu.exec_context.thread_0.statExecutedInstType::SimdFloatReduceAdd            0                       # Class of executed instruction. (Count)
system.cpu.exec_context.thread_0.statExecutedInstType::SimdFloatReduceCmp            0                       # Class of executed instruction. (Count)
system.cpu.exec_context.thread_0.statExecutedInstType::SimdAes            0                       # Class of executed instruction. (Count)
system.cpu.exec_context.thread_0.statExecutedInstType::SimdAesMix            0                       # Class of executed instruction. (Count)
system.cpu.exec_context.thread_0.statExecutedInstType::SimdSha1Hash            0                       # Class of executed instruction. (Count)
system.cpu.exec_context.thread_0.statExecutedInstType::SimdSha1Hash2            0                       # Class of executed instruction. (Count)
system.cpu.exec_context.thread_0.statExecutedInstType::SimdSha256Hash            0                       # Class of executed instruction. (Count)
system.cpu.exec_context.thread_0.statExecutedInstType::SimdSha256Hash2            0                       # Class of executed instruction. (Count)
system.cpu.exec_context.thread_0.statExecutedInstType::SimdShaSigma2            0                       # Class of executed instruction. (Count)
system.cpu.exec_context.thread_0.statExecutedInstType::SimdShaSigma3            0                       # Class of executed instruction. (Count)
system.cpu.exec_context.thread_0.statExecutedInstType::SimdPredAlu            0                       # Class of executed instruction. (Count)
system.cpu.exec_context.thread_0.statExecutedInstType::MemRead            0                       # Class of executed instruction. (Count)
system.cpu.exec_context.thread_0.statExecutedInstType::MemWrite            0                       # Class of executed instruction. (Count)
system.cpu.exec_context.thread_0.statExecutedInstType::FloatMemRead            0                       # Class of executed instruction. (Count)
system.cpu.exec_context.thread_0.statExecutedInstType::FloatMemWrite            0                       # Class of executed instruction. (Count)
system.cpu.exec_context.thread_0.statExecutedInstType::IprAccess            0                       # Class of executed instruction. (Count)
system.cpu.exec_context.thread_0.statExecutedInstType::InstPrefetch            0                       # Class of executed instruction. (Count)
system.cpu.exec_context.thread_0.statExecutedInstType::total            0                       # Class of executed instruction. (Count)
system.cpu.icache.demandHits::switch_cpus.inst     40889405                       # number of demand (read+write) hits (Count)
system.cpu.icache.demandHits::total          40889405                       # number of demand (read+write) hits (Count)
system.cpu.icache.overallHits::switch_cpus.inst     40889405                       # number of overall hits (Count)
system.cpu.icache.overallHits::total         40889405                       # number of overall hits (Count)
system.cpu.icache.demandMisses::switch_cpus.inst           26                       # number of demand (read+write) misses (Count)
system.cpu.icache.demandMisses::total              26                       # number of demand (read+write) misses (Count)
system.cpu.icache.overallMisses::switch_cpus.inst           26                       # number of overall misses (Count)
system.cpu.icache.overallMisses::total             26                       # number of overall misses (Count)
system.cpu.icache.demandMissLatency::switch_cpus.inst      5489500                       # number of demand (read+write) miss ticks (Tick)
system.cpu.icache.demandMissLatency::total      5489500                       # number of demand (read+write) miss ticks (Tick)
system.cpu.icache.overallMissLatency::switch_cpus.inst      5489500                       # number of overall miss ticks (Tick)
system.cpu.icache.overallMissLatency::total      5489500                       # number of overall miss ticks (Tick)
system.cpu.icache.demandAccesses::switch_cpus.inst     40889431                       # number of demand (read+write) accesses (Count)
system.cpu.icache.demandAccesses::total      40889431                       # number of demand (read+write) accesses (Count)
system.cpu.icache.overallAccesses::switch_cpus.inst     40889431                       # number of overall (read+write) accesses (Count)
system.cpu.icache.overallAccesses::total     40889431                       # number of overall (read+write) accesses (Count)
system.cpu.icache.demandMissRate::switch_cpus.inst     0.000001                       # miss rate for demand accesses (Ratio)
system.cpu.icache.demandMissRate::total      0.000001                       # miss rate for demand accesses (Ratio)
system.cpu.icache.overallMissRate::switch_cpus.inst     0.000001                       # miss rate for overall accesses (Ratio)
system.cpu.icache.overallMissRate::total     0.000001                       # miss rate for overall accesses (Ratio)
system.cpu.icache.demandAvgMissLatency::switch_cpus.inst 211134.615385                       # average overall miss latency in ticks ((Tick/Count))
system.cpu.icache.demandAvgMissLatency::total 211134.615385                       # average overall miss latency in ticks ((Tick/Count))
system.cpu.icache.overallAvgMissLatency::switch_cpus.inst 211134.615385                       # average overall miss latency ((Tick/Count))
system.cpu.icache.overallAvgMissLatency::total 211134.615385                       # average overall miss latency ((Tick/Count))
system.cpu.icache.blockedCycles::no_mshrs            0                       # number of cycles access was blocked (Cycle)
system.cpu.icache.blockedCycles::no_targets            0                       # number of cycles access was blocked (Cycle)
system.cpu.icache.blockedCauses::no_mshrs            0                       # number of times access was blocked (Count)
system.cpu.icache.blockedCauses::no_targets            0                       # number of times access was blocked (Count)
system.cpu.icache.avgBlocked::no_mshrs            nan                       # average number of cycles each access was blocked ((Cycle/Count))
system.cpu.icache.avgBlocked::no_targets          nan                       # average number of cycles each access was blocked ((Cycle/Count))
system.cpu.icache.demandMshrMisses::switch_cpus.inst           26                       # number of demand (read+write) MSHR misses (Count)
system.cpu.icache.demandMshrMisses::total           26                       # number of demand (read+write) MSHR misses (Count)
system.cpu.icache.overallMshrMisses::switch_cpus.inst           26                       # number of overall MSHR misses (Count)
system.cpu.icache.overallMshrMisses::total           26                       # number of overall MSHR misses (Count)
system.cpu.icache.demandMshrMissLatency::switch_cpus.inst      5463500                       # number of demand (read+write) MSHR miss ticks (Tick)
system.cpu.icache.demandMshrMissLatency::total      5463500                       # number of demand (read+write) MSHR miss ticks (Tick)
system.cpu.icache.overallMshrMissLatency::switch_cpus.inst      5463500                       # number of overall MSHR miss ticks (Tick)
system.cpu.icache.overallMshrMissLatency::total      5463500                       # number of overall MSHR miss ticks (Tick)
system.cpu.icache.demandMshrMissRate::switch_cpus.inst     0.000001                       # mshr miss ratio for demand accesses (Ratio)
system.cpu.icache.demandMshrMissRate::total     0.000001                       # mshr miss ratio for demand accesses (Ratio)
system.cpu.icache.overallMshrMissRate::switch_cpus.inst     0.000001                       # mshr miss ratio for overall accesses (Ratio)
system.cpu.icache.overallMshrMissRate::total     0.000001                       # mshr miss ratio for overall accesses (Ratio)
system.cpu.icache.demandAvgMshrMissLatency::switch_cpus.inst 210134.615385                       # average overall mshr miss latency ((Tick/Count))
system.cpu.icache.demandAvgMshrMissLatency::total 210134.615385                       # average overall mshr miss latency ((Tick/Count))
system.cpu.icache.overallAvgMshrMissLatency::switch_cpus.inst 210134.615385                       # average overall mshr miss latency ((Tick/Count))
system.cpu.icache.overallAvgMshrMissLatency::total 210134.615385                       # average overall mshr miss latency ((Tick/Count))
system.cpu.icache.replacements                     26                       # number of replacements (Count)
system.cpu.icache.ReadReq.hits::switch_cpus.inst     40889405                       # number of ReadReq hits (Count)
system.cpu.icache.ReadReq.hits::total        40889405                       # number of ReadReq hits (Count)
system.cpu.icache.ReadReq.misses::switch_cpus.inst           26                       # number of ReadReq misses (Count)
system.cpu.icache.ReadReq.misses::total            26                       # number of ReadReq misses (Count)
system.cpu.icache.ReadReq.missLatency::switch_cpus.inst      5489500                       # number of ReadReq miss ticks (Tick)
system.cpu.icache.ReadReq.missLatency::total      5489500                       # number of ReadReq miss ticks (Tick)
system.cpu.icache.ReadReq.accesses::switch_cpus.inst     40889431                       # number of ReadReq accesses(hits+misses) (Count)
system.cpu.icache.ReadReq.accesses::total     40889431                       # number of ReadReq accesses(hits+misses) (Count)
system.cpu.icache.ReadReq.missRate::switch_cpus.inst     0.000001                       # miss rate for ReadReq accesses (Ratio)
system.cpu.icache.ReadReq.missRate::total     0.000001                       # miss rate for ReadReq accesses (Ratio)
system.cpu.icache.ReadReq.avgMissLatency::switch_cpus.inst 211134.615385                       # average ReadReq miss latency ((Tick/Count))
system.cpu.icache.ReadReq.avgMissLatency::total 211134.615385                       # average ReadReq miss latency ((Tick/Count))
system.cpu.icache.ReadReq.mshrMisses::switch_cpus.inst           26                       # number of ReadReq MSHR misses (Count)
system.cpu.icache.ReadReq.mshrMisses::total           26                       # number of ReadReq MSHR misses (Count)
system.cpu.icache.ReadReq.mshrMissLatency::switch_cpus.inst      5463500                       # number of ReadReq MSHR miss ticks (Tick)
system.cpu.icache.ReadReq.mshrMissLatency::total      5463500                       # number of ReadReq MSHR miss ticks (Tick)
system.cpu.icache.ReadReq.mshrMissRate::switch_cpus.inst     0.000001                       # mshr miss rate for ReadReq accesses (Ratio)
system.cpu.icache.ReadReq.mshrMissRate::total     0.000001                       # mshr miss rate for ReadReq accesses (Ratio)
system.cpu.icache.ReadReq.avgMshrMissLatency::switch_cpus.inst 210134.615385                       # average ReadReq mshr miss latency ((Tick/Count))
system.cpu.icache.ReadReq.avgMshrMissLatency::total 210134.615385                       # average ReadReq mshr miss latency ((Tick/Count))
system.cpu.icache.power_state.pwrStateResidencyTicks::UNDEFINED 2318062271000                       # Cumulative time (in ticks) in various power states (Tick)
system.cpu.icache.tags.tagsInUse                  256                       # Average ticks per tags in use ((Tick/Count))
system.cpu.icache.tags.totalRefs           1047614873                       # Total number of references to valid blocks. (Count)
system.cpu.icache.tags.sampledRefs                282                       # Sample count of references to valid blocks. (Count)
system.cpu.icache.tags.avgRefs           3714946.358156                       # Average number of references to valid blocks. ((Count/Count))
system.cpu.icache.tags.warmupTick                   0                       # The tick when the warmup percentage was hit. (Tick)
system.cpu.icache.tags.occupancies::cpu.inst   230.089126                       # Average occupied blocks per tick, per requestor ((Count/Tick))
system.cpu.icache.tags.occupancies::switch_cpus.inst    25.910874                       # Average occupied blocks per tick, per requestor ((Count/Tick))
system.cpu.icache.tags.avgOccs::cpu.inst     0.898786                       # Average percentage of cache occupancy ((Ratio/Tick))
system.cpu.icache.tags.avgOccs::switch_cpus.inst     0.101214                       # Average percentage of cache occupancy ((Ratio/Tick))
system.cpu.icache.tags.avgOccs::total               1                       # Average percentage of cache occupancy ((Ratio/Tick))
system.cpu.icache.tags.occupanciesTaskId::1024          256                       # Occupied blocks per task id (Count)
system.cpu.icache.tags.ageTaskId_1024::4          256                       # Occupied blocks per task id, per block age (Count)
system.cpu.icache.tags.ratioOccsTaskId::1024            1                       # Ratio of occupied blocks and all blocks, per task id (Ratio)
system.cpu.icache.tags.tagAccesses           40889457                       # Number of tag accesses (Count)
system.cpu.icache.tags.dataAccesses          40889457                       # Number of data accesses (Count)
system.cpu.icache.tags.power_state.pwrStateResidencyTicks::UNDEFINED 2318062271000                       # Cumulative time (in ticks) in various power states (Tick)
system.cpu.interrupts.clk_domain.clock           8000                       # Clock period in ticks (Tick)
system.cpu.itb_walker_cache.blockedCycles::no_mshrs            0                       # number of cycles access was blocked (Cycle)
system.cpu.itb_walker_cache.blockedCycles::no_targets            0                       # number of cycles access was blocked (Cycle)
system.cpu.itb_walker_cache.blockedCauses::no_mshrs            0                       # number of times access was blocked (Count)
system.cpu.itb_walker_cache.blockedCauses::no_targets            0                       # number of times access was blocked (Count)
system.cpu.itb_walker_cache.avgBlocked::no_mshrs          nan                       # average number of cycles each access was blocked ((Cycle/Count))
system.cpu.itb_walker_cache.avgBlocked::no_targets          nan                       # average number of cycles each access was blocked ((Cycle/Count))
system.cpu.itb_walker_cache.replacements            0                       # number of replacements (Count)
system.cpu.itb_walker_cache.power_state.pwrStateResidencyTicks::UNDEFINED 2318062271000                       # Cumulative time (in ticks) in various power states (Tick)
system.cpu.itb_walker_cache.tags.tagsInUse            0                       # Average ticks per tags in use ((Tick/Count))
system.cpu.itb_walker_cache.tags.totalRefs            0                       # Total number of references to valid blocks. (Count)
system.cpu.itb_walker_cache.tags.sampledRefs            0                       # Sample count of references to valid blocks. (Count)
system.cpu.itb_walker_cache.tags.avgRefs          nan                       # Average number of references to valid blocks. ((Count/Count))
system.cpu.itb_walker_cache.tags.warmupTick            0                       # The tick when the warmup percentage was hit. (Tick)
system.cpu.itb_walker_cache.tags.tagAccesses            0                       # Number of tag accesses (Count)
system.cpu.itb_walker_cache.tags.dataAccesses            0                       # Number of data accesses (Count)
system.cpu.itb_walker_cache.tags.power_state.pwrStateResidencyTicks::UNDEFINED 2318062271000                       # Cumulative time (in ticks) in various power states (Tick)
system.cpu.mmu.dtb.rdAccesses                       0                       # TLB accesses on read requests (Count)
system.cpu.mmu.dtb.wrAccesses                       0                       # TLB accesses on write requests (Count)
system.cpu.mmu.dtb.rdMisses                         0                       # TLB misses on read requests (Count)
system.cpu.mmu.dtb.wrMisses                         0                       # TLB misses on write requests (Count)
system.cpu.mmu.dtb.walker.power_state.pwrStateResidencyTicks::UNDEFINED 2318062271000                       # Cumulative time (in ticks) in various power states (Tick)
system.cpu.mmu.itb.rdAccesses                       0                       # TLB accesses on read requests (Count)
system.cpu.mmu.itb.wrAccesses                       0                       # TLB accesses on write requests (Count)
system.cpu.mmu.itb.rdMisses                         0                       # TLB misses on read requests (Count)
system.cpu.mmu.itb.wrMisses                         0                       # TLB misses on write requests (Count)
system.cpu.mmu.itb.walker.power_state.pwrStateResidencyTicks::UNDEFINED 2318062271000                       # Cumulative time (in ticks) in various power states (Tick)
system.cpu.power_state.pwrStateResidencyTicks::OFF 1242290337500                       # Cumulative time (in ticks) in various power states (Tick)
system.cpu.thread_0.numInsts                        0                       # Number of Instructions committed (Count)
system.cpu.thread_0.numOps                          0                       # Number of Ops committed (Count)
system.cpu.thread_0.numMemRefs                      0                       # Number of Memory References (Count)
system.cpu.workload.numSyscalls                     0                       # Number of system calls (Count)
system.cpu_clk_domain.clock                       500                       # Clock period in ticks (Tick)
system.cpu_voltage_domain.voltage                   1                       # Voltage in Volts (Volt)
system.l2.demandHits::switch_cpus.data        2758968                       # number of demand (read+write) hits (Count)
system.l2.demandHits::total                   2758968                       # number of demand (read+write) hits (Count)
system.l2.overallHits::switch_cpus.data       2758968                       # number of overall hits (Count)
system.l2.overallHits::total                  2758968                       # number of overall hits (Count)
system.l2.demandMisses::switch_cpus.inst           26                       # number of demand (read+write) misses (Count)
system.l2.demandMisses::switch_cpus.data      4947234                       # number of demand (read+write) misses (Count)
system.l2.demandMisses::total                 4947260                       # number of demand (read+write) misses (Count)
system.l2.overallMisses::switch_cpus.inst           26                       # number of overall misses (Count)
system.l2.overallMisses::switch_cpus.data      4947234                       # number of overall misses (Count)
system.l2.overallMisses::total                4947260                       # number of overall misses (Count)
system.l2.demandMissLatency::switch_cpus.inst      5424500                       # number of demand (read+write) miss ticks (Tick)
system.l2.demandMissLatency::switch_cpus.data 1071708562500                       # number of demand (read+write) miss ticks (Tick)
system.l2.demandMissLatency::total       1071713987000                       # number of demand (read+write) miss ticks (Tick)
system.l2.overallMissLatency::switch_cpus.inst      5424500                       # number of overall miss ticks (Tick)
system.l2.overallMissLatency::switch_cpus.data 1071708562500                       # number of overall miss ticks (Tick)
system.l2.overallMissLatency::total      1071713987000                       # number of overall miss ticks (Tick)
system.l2.demandAccesses::switch_cpus.inst           26                       # number of demand (read+write) accesses (Count)
system.l2.demandAccesses::switch_cpus.data      7706202                       # number of demand (read+write) accesses (Count)
system.l2.demandAccesses::total               7706228                       # number of demand (read+write) accesses (Count)
system.l2.overallAccesses::switch_cpus.inst           26                       # number of overall (read+write) accesses (Count)
system.l2.overallAccesses::switch_cpus.data      7706202                       # number of overall (read+write) accesses (Count)
system.l2.overallAccesses::total              7706228                       # number of overall (read+write) accesses (Count)
system.l2.demandMissRate::switch_cpus.inst            1                       # miss rate for demand accesses (Ratio)
system.l2.demandMissRate::switch_cpus.data     0.641981                       # miss rate for demand accesses (Ratio)
system.l2.demandMissRate::total              0.641982                       # miss rate for demand accesses (Ratio)
system.l2.overallMissRate::switch_cpus.inst            1                       # miss rate for overall accesses (Ratio)
system.l2.overallMissRate::switch_cpus.data     0.641981                       # miss rate for overall accesses (Ratio)
system.l2.overallMissRate::total             0.641982                       # miss rate for overall accesses (Ratio)
system.l2.demandAvgMissLatency::switch_cpus.inst 208634.615385                       # average overall miss latency in ticks ((Tick/Count))
system.l2.demandAvgMissLatency::switch_cpus.data 216627.829308                       # average overall miss latency in ticks ((Tick/Count))
system.l2.demandAvgMissLatency::total    216627.787300                       # average overall miss latency in ticks ((Tick/Count))
system.l2.overallAvgMissLatency::switch_cpus.inst 208634.615385                       # average overall miss latency ((Tick/Count))
system.l2.overallAvgMissLatency::switch_cpus.data 216627.829308                       # average overall miss latency ((Tick/Count))
system.l2.overallAvgMissLatency::total   216627.787300                       # average overall miss latency ((Tick/Count))
system.l2.blockedCycles::no_mshrs                   0                       # number of cycles access was blocked (Cycle)
system.l2.blockedCycles::no_targets                 0                       # number of cycles access was blocked (Cycle)
system.l2.blockedCauses::no_mshrs                   0                       # number of times access was blocked (Count)
system.l2.blockedCauses::no_targets                 0                       # number of times access was blocked (Count)
system.l2.avgBlocked::no_mshrs                    nan                       # average number of cycles each access was blocked ((Cycle/Count))
system.l2.avgBlocked::no_targets                  nan                       # average number of cycles each access was blocked ((Cycle/Count))
system.l2.writebacks::writebacks               240237                       # number of writebacks (Count)
system.l2.writebacks::total                    240237                       # number of writebacks (Count)
system.l2.demandMshrMisses::switch_cpus.inst           26                       # number of demand (read+write) MSHR misses (Count)
system.l2.demandMshrMisses::switch_cpus.data      4947234                       # number of demand (read+write) MSHR misses (Count)
system.l2.demandMshrMisses::total             4947260                       # number of demand (read+write) MSHR misses (Count)
system.l2.overallMshrMisses::switch_cpus.inst           26                       # number of overall MSHR misses (Count)
system.l2.overallMshrMisses::switch_cpus.data      4947234                       # number of overall MSHR misses (Count)
system.l2.overallMshrMisses::total            4947260                       # number of overall MSHR misses (Count)
system.l2.demandMshrMissLatency::switch_cpus.inst      5164500                       # number of demand (read+write) MSHR miss ticks (Tick)
system.l2.demandMshrMissLatency::switch_cpus.data 1022236222500                       # number of demand (read+write) MSHR miss ticks (Tick)
system.l2.demandMshrMissLatency::total   1022241387000                       # number of demand (read+write) MSHR miss ticks (Tick)
system.l2.overallMshrMissLatency::switch_cpus.inst      5164500                       # number of overall MSHR miss ticks (Tick)
system.l2.overallMshrMissLatency::switch_cpus.data 1022236222500                       # number of overall MSHR miss ticks (Tick)
system.l2.overallMshrMissLatency::total  1022241387000                       # number of overall MSHR miss ticks (Tick)
system.l2.demandMshrMissRate::switch_cpus.inst            1                       # mshr miss ratio for demand accesses (Ratio)
system.l2.demandMshrMissRate::switch_cpus.data     0.641981                       # mshr miss ratio for demand accesses (Ratio)
system.l2.demandMshrMissRate::total          0.641982                       # mshr miss ratio for demand accesses (Ratio)
system.l2.overallMshrMissRate::switch_cpus.inst            1                       # mshr miss ratio for overall accesses (Ratio)
system.l2.overallMshrMissRate::switch_cpus.data     0.641981                       # mshr miss ratio for overall accesses (Ratio)
system.l2.overallMshrMissRate::total         0.641982                       # mshr miss ratio for overall accesses (Ratio)
system.l2.demandAvgMshrMissLatency::switch_cpus.inst 198634.615385                       # average overall mshr miss latency ((Tick/Count))
system.l2.demandAvgMshrMissLatency::switch_cpus.data 206627.829308                       # average overall mshr miss latency ((Tick/Count))
system.l2.demandAvgMshrMissLatency::total 206627.787300                       # average overall mshr miss latency ((Tick/Count))
system.l2.overallAvgMshrMissLatency::switch_cpus.inst 198634.615385                       # average overall mshr miss latency ((Tick/Count))
system.l2.overallAvgMshrMissLatency::switch_cpus.data 206627.829308                       # average overall mshr miss latency ((Tick/Count))
system.l2.overallAvgMshrMissLatency::total 206627.787300                       # average overall mshr miss latency ((Tick/Count))
system.l2.replacements                        4947260                       # number of replacements (Count)
system.l2.CleanEvict.mshrMisses::writebacks           26                       # number of CleanEvict MSHR misses (Count)
system.l2.CleanEvict.mshrMisses::total             26                       # number of CleanEvict MSHR misses (Count)
system.l2.CleanEvict.mshrMissRate::writebacks          inf                       # mshr miss rate for CleanEvict accesses (Ratio)
system.l2.CleanEvict.mshrMissRate::total          inf                       # mshr miss rate for CleanEvict accesses (Ratio)
system.l2.ReadCleanReq.misses::switch_cpus.inst           26                       # number of ReadCleanReq misses (Count)
system.l2.ReadCleanReq.misses::total               26                       # number of ReadCleanReq misses (Count)
system.l2.ReadCleanReq.missLatency::switch_cpus.inst      5424500                       # number of ReadCleanReq miss ticks (Tick)
system.l2.ReadCleanReq.missLatency::total      5424500                       # number of ReadCleanReq miss ticks (Tick)
system.l2.ReadCleanReq.accesses::switch_cpus.inst           26                       # number of ReadCleanReq accesses(hits+misses) (Count)
system.l2.ReadCleanReq.accesses::total             26                       # number of ReadCleanReq accesses(hits+misses) (Count)
system.l2.ReadCleanReq.missRate::switch_cpus.inst            1                       # miss rate for ReadCleanReq accesses (Ratio)
system.l2.ReadCleanReq.missRate::total              1                       # miss rate for ReadCleanReq accesses (Ratio)
system.l2.ReadCleanReq.avgMissLatency::switch_cpus.inst 208634.615385                       # average ReadCleanReq miss latency ((Tick/Count))
system.l2.ReadCleanReq.avgMissLatency::total 208634.615385                       # average ReadCleanReq miss latency ((Tick/Count))
system.l2.ReadCleanReq.mshrMisses::switch_cpus.inst           26                       # number of ReadCleanReq MSHR misses (Count)
system.l2.ReadCleanReq.mshrMisses::total           26                       # number of ReadCleanReq MSHR misses (Count)
system.l2.ReadCleanReq.mshrMissLatency::switch_cpus.inst      5164500                       # number of ReadCleanReq MSHR miss ticks (Tick)
system.l2.ReadCleanReq.mshrMissLatency::total      5164500                       # number of ReadCleanReq MSHR miss ticks (Tick)
system.l2.ReadCleanReq.mshrMissRate::switch_cpus.inst            1                       # mshr miss rate for ReadCleanReq accesses (Ratio)
system.l2.ReadCleanReq.mshrMissRate::total            1                       # mshr miss rate for ReadCleanReq accesses (Ratio)
system.l2.ReadCleanReq.avgMshrMissLatency::switch_cpus.inst 198634.615385                       # average ReadCleanReq mshr miss latency ((Tick/Count))
system.l2.ReadCleanReq.avgMshrMissLatency::total 198634.615385                       # average ReadCleanReq mshr miss latency ((Tick/Count))
system.l2.ReadExReq.hits::switch_cpus.data       227593                       # number of ReadExReq hits (Count)
system.l2.ReadExReq.hits::total                227593                       # number of ReadExReq hits (Count)
system.l2.ReadExReq.misses::switch_cpus.data       155063                       # number of ReadExReq misses (Count)
system.l2.ReadExReq.misses::total              155063                       # number of ReadExReq misses (Count)
system.l2.ReadExReq.missLatency::switch_cpus.data  32981981000                       # number of ReadExReq miss ticks (Tick)
system.l2.ReadExReq.missLatency::total    32981981000                       # number of ReadExReq miss ticks (Tick)
system.l2.ReadExReq.accesses::switch_cpus.data       382656                       # number of ReadExReq accesses(hits+misses) (Count)
system.l2.ReadExReq.accesses::total            382656                       # number of ReadExReq accesses(hits+misses) (Count)
system.l2.ReadExReq.missRate::switch_cpus.data     0.405228                       # miss rate for ReadExReq accesses (Ratio)
system.l2.ReadExReq.missRate::total          0.405228                       # miss rate for ReadExReq accesses (Ratio)
system.l2.ReadExReq.avgMissLatency::switch_cpus.data 212700.521723                       # average ReadExReq miss latency ((Tick/Count))
system.l2.ReadExReq.avgMissLatency::total 212700.521723                       # average ReadExReq miss latency ((Tick/Count))
system.l2.ReadExReq.mshrMisses::switch_cpus.data       155063                       # number of ReadExReq MSHR misses (Count)
system.l2.ReadExReq.mshrMisses::total          155063                       # number of ReadExReq MSHR misses (Count)
system.l2.ReadExReq.mshrMissLatency::switch_cpus.data  31431351000                       # number of ReadExReq MSHR miss ticks (Tick)
system.l2.ReadExReq.mshrMissLatency::total  31431351000                       # number of ReadExReq MSHR miss ticks (Tick)
system.l2.ReadExReq.mshrMissRate::switch_cpus.data     0.405228                       # mshr miss rate for ReadExReq accesses (Ratio)
system.l2.ReadExReq.mshrMissRate::total      0.405228                       # mshr miss rate for ReadExReq accesses (Ratio)
system.l2.ReadExReq.avgMshrMissLatency::switch_cpus.data 202700.521723                       # average ReadExReq mshr miss latency ((Tick/Count))
system.l2.ReadExReq.avgMshrMissLatency::total 202700.521723                       # average ReadExReq mshr miss latency ((Tick/Count))
system.l2.ReadSharedReq.hits::switch_cpus.data      2531375                       # number of ReadSharedReq hits (Count)
system.l2.ReadSharedReq.hits::total           2531375                       # number of ReadSharedReq hits (Count)
system.l2.ReadSharedReq.misses::switch_cpus.data      4792171                       # number of ReadSharedReq misses (Count)
system.l2.ReadSharedReq.misses::total         4792171                       # number of ReadSharedReq misses (Count)
system.l2.ReadSharedReq.missLatency::switch_cpus.data 1038726581500                       # number of ReadSharedReq miss ticks (Tick)
system.l2.ReadSharedReq.missLatency::total 1038726581500                       # number of ReadSharedReq miss ticks (Tick)
system.l2.ReadSharedReq.accesses::switch_cpus.data      7323546                       # number of ReadSharedReq accesses(hits+misses) (Count)
system.l2.ReadSharedReq.accesses::total       7323546                       # number of ReadSharedReq accesses(hits+misses) (Count)
system.l2.ReadSharedReq.missRate::switch_cpus.data     0.654351                       # miss rate for ReadSharedReq accesses (Ratio)
system.l2.ReadSharedReq.missRate::total      0.654351                       # miss rate for ReadSharedReq accesses (Ratio)
system.l2.ReadSharedReq.avgMissLatency::switch_cpus.data 216754.907431                       # average ReadSharedReq miss latency ((Tick/Count))
system.l2.ReadSharedReq.avgMissLatency::total 216754.907431                       # average ReadSharedReq miss latency ((Tick/Count))
system.l2.ReadSharedReq.mshrMisses::switch_cpus.data      4792171                       # number of ReadSharedReq MSHR misses (Count)
system.l2.ReadSharedReq.mshrMisses::total      4792171                       # number of ReadSharedReq MSHR misses (Count)
system.l2.ReadSharedReq.mshrMissLatency::switch_cpus.data 990804871500                       # number of ReadSharedReq MSHR miss ticks (Tick)
system.l2.ReadSharedReq.mshrMissLatency::total 990804871500                       # number of ReadSharedReq MSHR miss ticks (Tick)
system.l2.ReadSharedReq.mshrMissRate::switch_cpus.data     0.654351                       # mshr miss rate for ReadSharedReq accesses (Ratio)
system.l2.ReadSharedReq.mshrMissRate::total     0.654351                       # mshr miss rate for ReadSharedReq accesses (Ratio)
system.l2.ReadSharedReq.avgMshrMissLatency::switch_cpus.data 206754.907431                       # average ReadSharedReq mshr miss latency ((Tick/Count))
system.l2.ReadSharedReq.avgMshrMissLatency::total 206754.907431                       # average ReadSharedReq mshr miss latency ((Tick/Count))
system.l2.WritebackDirty.hits::writebacks       775423                       # number of WritebackDirty hits (Count)
system.l2.WritebackDirty.hits::total           775423                       # number of WritebackDirty hits (Count)
system.l2.WritebackDirty.accesses::writebacks       775423                       # number of WritebackDirty accesses(hits+misses) (Count)
system.l2.WritebackDirty.accesses::total       775423                       # number of WritebackDirty accesses(hits+misses) (Count)
system.l2.power_state.pwrStateResidencyTicks::UNDEFINED 2318062271000                       # Cumulative time (in ticks) in various power states (Tick)
system.l2.tags.tagsInUse                         2048                       # Average ticks per tags in use ((Tick/Count))
system.l2.tags.totalRefs                     15425902                       # Total number of references to valid blocks. (Count)
system.l2.tags.sampledRefs                    4949308                       # Sample count of references to valid blocks. (Count)
system.l2.tags.avgRefs                       3.116780                       # Average number of references to valid blocks. ((Count/Count))
system.l2.tags.warmupTick                           0                       # The tick when the warmup percentage was hit. (Tick)
system.l2.tags.occupancies::cpu.data         1.441481                       # Average occupied blocks per tick, per requestor ((Count/Tick))
system.l2.tags.occupancies::switch_cpus.inst     0.012250                       # Average occupied blocks per tick, per requestor ((Count/Tick))
system.l2.tags.occupancies::switch_cpus.data  2046.546268                       # Average occupied blocks per tick, per requestor ((Count/Tick))
system.l2.tags.avgOccs::cpu.data             0.000704                       # Average percentage of cache occupancy ((Ratio/Tick))
system.l2.tags.avgOccs::switch_cpus.inst     0.000006                       # Average percentage of cache occupancy ((Ratio/Tick))
system.l2.tags.avgOccs::switch_cpus.data     0.999290                       # Average percentage of cache occupancy ((Ratio/Tick))
system.l2.tags.avgOccs::total                       1                       # Average percentage of cache occupancy ((Ratio/Tick))
system.l2.tags.occupanciesTaskId::1024           2048                       # Occupied blocks per task id (Count)
system.l2.tags.ageTaskId_1024::0                   40                       # Occupied blocks per task id, per block age (Count)
system.l2.tags.ageTaskId_1024::1                  355                       # Occupied blocks per task id, per block age (Count)
system.l2.tags.ageTaskId_1024::2                 1629                       # Occupied blocks per task id, per block age (Count)
system.l2.tags.ageTaskId_1024::3                   24                       # Occupied blocks per task id, per block age (Count)
system.l2.tags.ratioOccsTaskId::1024                1                       # Ratio of occupied blocks and all blocks, per task id (Ratio)
system.l2.tags.tagAccesses                   66597084                       # Number of tag accesses (Count)
system.l2.tags.dataAccesses                  66597084                       # Number of data accesses (Count)
system.l2.tags.power_state.pwrStateResidencyTicks::UNDEFINED 2318062271000                       # Cumulative time (in ticks) in various power states (Tick)
system.mem_ctrls.avgPriority_writebacks::samples    239754.00                       # Average QoS priority value for accepted requests (Count)
system.mem_ctrls.avgPriority_switch_cpus.inst::samples        26.00                       # Average QoS priority value for accepted requests (Count)
system.mem_ctrls.avgPriority_switch_cpus.data::samples   4928936.00                       # Average QoS priority value for accepted requests (Count)
system.mem_ctrls.priorityMinLatency      0.000000018750                       # per QoS priority minimum request to response latency (Second)
system.mem_ctrls.priorityMaxLatency      0.003941560750                       # per QoS priority maximum request to response latency (Second)
system.mem_ctrls.numReadWriteTurnArounds        14898                       # Number of turnarounds from READ to WRITE (Count)
system.mem_ctrls.numWriteReadTurnArounds        14898                       # Number of turnarounds from WRITE to READ (Count)
system.mem_ctrls.numStayReadState            10402345                       # Number of times bus staying in READ state (Count)
system.mem_ctrls.numStayWriteState             225096                       # Number of times bus staying in WRITE state (Count)
system.mem_ctrls.readReqs                     4947260                       # Number of read requests accepted (Count)
system.mem_ctrls.writeReqs                     240237                       # Number of write requests accepted (Count)
system.mem_ctrls.readBursts                   4947260                       # Number of controller read bursts, including those serviced by the write queue (Count)
system.mem_ctrls.writeBursts                   240237                       # Number of controller write bursts, including those merged in the write queue (Count)
system.mem_ctrls.servicedByWrQ                  18298                       # Number of controller read bursts serviced by the write queue (Count)
system.mem_ctrls.mergedWrBursts                   483                       # Number of controller write bursts merged with an existing one (Count)
system.mem_ctrls.neitherReadNorWriteReqs            0                       # Number of requests that are neither read nor write (Count)
system.mem_ctrls.avgRdQLen                       1.02                       # Average read queue length when enqueuing ((Count/Tick))
system.mem_ctrls.avgWrQLen                      25.34                       # Average write queue length when enqueuing ((Count/Tick))
system.mem_ctrls.numRdRetry                         0                       # Number of times read queue was full causing retry (Count)
system.mem_ctrls.numWrRetry                         0                       # Number of times write queue was full causing retry (Count)
system.mem_ctrls.readPktSize::0                     0                       # Read request sizes (log2) (Count)
system.mem_ctrls.readPktSize::1                     0                       # Read request sizes (log2) (Count)
system.mem_ctrls.readPktSize::2                     0                       # Read request sizes (log2) (Count)
system.mem_ctrls.readPktSize::3                     0                       # Read request sizes (log2) (Count)
system.mem_ctrls.readPktSize::4                     0                       # Read request sizes (log2) (Count)
system.mem_ctrls.readPktSize::5                     0                       # Read request sizes (log2) (Count)
system.mem_ctrls.readPktSize::6               4947260                       # Read request sizes (log2) (Count)
system.mem_ctrls.writePktSize::0                    0                       # Write request sizes (log2) (Count)
system.mem_ctrls.writePktSize::1                    0                       # Write request sizes (log2) (Count)
system.mem_ctrls.writePktSize::2                    0                       # Write request sizes (log2) (Count)
system.mem_ctrls.writePktSize::3                    0                       # Write request sizes (log2) (Count)
system.mem_ctrls.writePktSize::4                    0                       # Write request sizes (log2) (Count)
system.mem_ctrls.writePktSize::5                    0                       # Write request sizes (log2) (Count)
system.mem_ctrls.writePktSize::6               240237                       # Write request sizes (log2) (Count)
system.mem_ctrls.rdQLenPdf::0                 4923513                       # What read queue length does an incoming req see (Count)
system.mem_ctrls.rdQLenPdf::1                    5448                       # What read queue length does an incoming req see (Count)
system.mem_ctrls.rdQLenPdf::2                       1                       # What read queue length does an incoming req see (Count)
system.mem_ctrls.rdQLenPdf::3                       0                       # What read queue length does an incoming req see (Count)
system.mem_ctrls.rdQLenPdf::4                       0                       # What read queue length does an incoming req see (Count)
system.mem_ctrls.rdQLenPdf::5                       0                       # What read queue length does an incoming req see (Count)
system.mem_ctrls.rdQLenPdf::6                       0                       # What read queue length does an incoming req see (Count)
system.mem_ctrls.rdQLenPdf::7                       0                       # What read queue length does an incoming req see (Count)
system.mem_ctrls.rdQLenPdf::8                       0                       # What read queue length does an incoming req see (Count)
system.mem_ctrls.rdQLenPdf::9                       0                       # What read queue length does an incoming req see (Count)
system.mem_ctrls.rdQLenPdf::10                      0                       # What read queue length does an incoming req see (Count)
system.mem_ctrls.rdQLenPdf::11                      0                       # What read queue length does an incoming req see (Count)
system.mem_ctrls.rdQLenPdf::12                      0                       # What read queue length does an incoming req see (Count)
system.mem_ctrls.rdQLenPdf::13                      0                       # What read queue length does an incoming req see (Count)
system.mem_ctrls.rdQLenPdf::14                      0                       # What read queue length does an incoming req see (Count)
system.mem_ctrls.rdQLenPdf::15                      0                       # What read queue length does an incoming req see (Count)
system.mem_ctrls.rdQLenPdf::16                      0                       # What read queue length does an incoming req see (Count)
system.mem_ctrls.rdQLenPdf::17                      0                       # What read queue length does an incoming req see (Count)
system.mem_ctrls.rdQLenPdf::18                      0                       # What read queue length does an incoming req see (Count)
system.mem_ctrls.rdQLenPdf::19                      0                       # What read queue length does an incoming req see (Count)
system.mem_ctrls.rdQLenPdf::20                      0                       # What read queue length does an incoming req see (Count)
system.mem_ctrls.rdQLenPdf::21                      0                       # What read queue length does an incoming req see (Count)
system.mem_ctrls.rdQLenPdf::22                      0                       # What read queue length does an incoming req see (Count)
system.mem_ctrls.rdQLenPdf::23                      0                       # What read queue length does an incoming req see (Count)
system.mem_ctrls.rdQLenPdf::24                      0                       # What read queue length does an incoming req see (Count)
system.mem_ctrls.rdQLenPdf::25                      0                       # What read queue length does an incoming req see (Count)
system.mem_ctrls.rdQLenPdf::26                      0                       # What read queue length does an incoming req see (Count)
system.mem_ctrls.rdQLenPdf::27                      0                       # What read queue length does an incoming req see (Count)
system.mem_ctrls.rdQLenPdf::28                      0                       # What read queue length does an incoming req see (Count)
system.mem_ctrls.rdQLenPdf::29                      0                       # What read queue length does an incoming req see (Count)
system.mem_ctrls.rdQLenPdf::30                      0                       # What read queue length does an incoming req see (Count)
system.mem_ctrls.rdQLenPdf::31                      0                       # What read queue length does an incoming req see (Count)
system.mem_ctrls.wrQLenPdf::0                       1                       # What write queue length does an incoming req see (Count)
system.mem_ctrls.wrQLenPdf::1                       1                       # What write queue length does an incoming req see (Count)
system.mem_ctrls.wrQLenPdf::2                       1                       # What write queue length does an incoming req see (Count)
system.mem_ctrls.wrQLenPdf::3                       1                       # What write queue length does an incoming req see (Count)
system.mem_ctrls.wrQLenPdf::4                       1                       # What write queue length does an incoming req see (Count)
system.mem_ctrls.wrQLenPdf::5                       1                       # What write queue length does an incoming req see (Count)
system.mem_ctrls.wrQLenPdf::6                       1                       # What write queue length does an incoming req see (Count)
system.mem_ctrls.wrQLenPdf::7                       1                       # What write queue length does an incoming req see (Count)
system.mem_ctrls.wrQLenPdf::8                       1                       # What write queue length does an incoming req see (Count)
system.mem_ctrls.wrQLenPdf::9                       1                       # What write queue length does an incoming req see (Count)
system.mem_ctrls.wrQLenPdf::10                      1                       # What write queue length does an incoming req see (Count)
system.mem_ctrls.wrQLenPdf::11                      1                       # What write queue length does an incoming req see (Count)
system.mem_ctrls.wrQLenPdf::12                      1                       # What write queue length does an incoming req see (Count)
system.mem_ctrls.wrQLenPdf::13                      1                       # What write queue length does an incoming req see (Count)
system.mem_ctrls.wrQLenPdf::14                      1                       # What write queue length does an incoming req see (Count)
system.mem_ctrls.wrQLenPdf::15                    641                       # What write queue length does an incoming req see (Count)
system.mem_ctrls.wrQLenPdf::16                    727                       # What write queue length does an incoming req see (Count)
system.mem_ctrls.wrQLenPdf::17                  14899                       # What write queue length does an incoming req see (Count)
system.mem_ctrls.wrQLenPdf::18                  14899                       # What write queue length does an incoming req see (Count)
system.mem_ctrls.wrQLenPdf::19                  14899                       # What write queue length does an incoming req see (Count)
system.mem_ctrls.wrQLenPdf::20                  14898                       # What write queue length does an incoming req see (Count)
system.mem_ctrls.wrQLenPdf::21                  14898                       # What write queue length does an incoming req see (Count)
system.mem_ctrls.wrQLenPdf::22                  14898                       # What write queue length does an incoming req see (Count)
system.mem_ctrls.wrQLenPdf::23                  14898                       # What write queue length does an incoming req see (Count)
system.mem_ctrls.wrQLenPdf::24                  14898                       # What write queue length does an incoming req see (Count)
system.mem_ctrls.wrQLenPdf::25                  14898                       # What write queue length does an incoming req see (Count)
system.mem_ctrls.wrQLenPdf::26                  14898                       # What write queue length does an incoming req see (Count)
system.mem_ctrls.wrQLenPdf::27                  14898                       # What write queue length does an incoming req see (Count)
system.mem_ctrls.wrQLenPdf::28                  14898                       # What write queue length does an incoming req see (Count)
system.mem_ctrls.wrQLenPdf::29                  14898                       # What write queue length does an incoming req see (Count)
system.mem_ctrls.wrQLenPdf::30                  14898                       # What write queue length does an incoming req see (Count)
system.mem_ctrls.wrQLenPdf::31                  14898                       # What write queue length does an incoming req see (Count)
system.mem_ctrls.wrQLenPdf::32                  14898                       # What write queue length does an incoming req see (Count)
system.mem_ctrls.wrQLenPdf::33                      0                       # What write queue length does an incoming req see (Count)
system.mem_ctrls.wrQLenPdf::34                      0                       # What write queue length does an incoming req see (Count)
system.mem_ctrls.wrQLenPdf::35                      0                       # What write queue length does an incoming req see (Count)
system.mem_ctrls.wrQLenPdf::36                      0                       # What write queue length does an incoming req see (Count)
system.mem_ctrls.wrQLenPdf::37                      0                       # What write queue length does an incoming req see (Count)
system.mem_ctrls.wrQLenPdf::38                      0                       # What write queue length does an incoming req see (Count)
system.mem_ctrls.wrQLenPdf::39                      0                       # What write queue length does an incoming req see (Count)
system.mem_ctrls.wrQLenPdf::40                      0                       # What write queue length does an incoming req see (Count)
system.mem_ctrls.wrQLenPdf::41                      0                       # What write queue length does an incoming req see (Count)
system.mem_ctrls.wrQLenPdf::42                      0                       # What write queue length does an incoming req see (Count)
[...]
system.membus.snoopFanout::min_value                0                       # Request fanout histogram (Count)
system.membus.snoopFanout::max_value                0                       # Request fanout histogram (Count)
system.membus.snoopFanout::total              4947260                       # Request fanout histogram (Count)
system.membus.power_state.pwrStateResidencyTicks::UNDEFINED 2318062271000                       # Cumulative time (in ticks) in various power states (Tick)
system.membus.reqLayer2.occupancy         12611343500                       # Layer occupancy (ticks) (Tick)
system.membus.reqLayer2.utilization               0.0                       # Layer utilization (Ratio)
system.membus.respLayer1.occupancy        26988441000                       # Layer occupancy (ticks) (Tick)
system.membus.respLayer1.utilization              0.0                       # Layer utilization (Ratio)
system.membus.snoop_filter.totRequests        9894520                       # Total number of requests made to the snoop filter. (Count)
system.membus.snoop_filter.hitSingleRequests      4947260                       # Number of requests hitting in the snoop filter with a single holder of the requested data. (Count)
system.membus.snoop_filter.hitMultiRequests            0                       # Number of requests hitting in the snoop filter with multiple (>1) holders of the requested data. (Count)
system.membus.snoop_filter.totSnoops                0                       # Total number of snoops made to the snoop filter. (Count)
system.membus.snoop_filter.hitSingleSnoops            0                       # Number of snoops hitting in the snoop filter with a single holder of the requested data. (Count)
system.membus.snoop_filter.hitMultiSnoops            0                       # Number of snoops hitting in the snoop filter with multiple (>1) holders of the requested data. (Count)
system.switch_cpus.numCycles               2484580675                       # Number of cpu cycles simulated (Cycle)
system.switch_cpus.numWorkItemsStarted              0                       # Number of work items this cpu started (Count)
system.switch_cpus.numWorkItemsCompleted            0                       # Number of work items this cpu completed (Count)
system.switch_cpus.numInsts                 100000000                       # Number of instructions committed (Count)
system.switch_cpus.numOps                   173938542                       # Number of ops (including micro ops) committed (Count)
system.switch_cpus.numDiscardedOps           45504213                       # Number of ops (including micro ops) which were discarded before commit (Count)
system.switch_cpus.numFetchSuspends                 0                       # Number of times Execute suspended instruction fetching (Count)
system.switch_cpus.cpi                      24.845807                       # CPI: cycles per instruction ((Cycle/Count))
system.switch_cpus.ipc                       0.040248                       # IPC: instructions per cycle ((Count/Cycle))
system.switch_cpus.committedInstType_0::No_OpClass        84535      0.05%      0.05% # Class of committed instruction (Count)
system.switch_cpus.committedInstType_0::IntAlu    128671850     73.98%     74.02% # Class of committed instruction (Count)
system.switch_cpus.committedInstType_0::IntMult       199651      0.11%     74.14% # Class of committed instruction (Count)
system.switch_cpus.committedInstType_0::IntDiv       652353      0.38%     74.51% # Class of committed instruction (Count)
system.switch_cpus.committedInstType_0::FloatAdd          774      0.00%     74.51% # Class of committed instruction (Count)
system.switch_cpus.committedInstType_0::FloatCmp            0      0.00%     74.51% # Class of committed instruction (Count)
system.switch_cpus.committedInstType_0::FloatCvt            0      0.00%     74.51% # Class of committed instruction (Count)
system.switch_cpus.committedInstType_0::FloatMult            0      0.00%     74.51% # Class of committed instruction (Count)
system.switch_cpus.committedInstType_0::FloatMultAcc            0      0.00%     74.51% # Class of committed instruction (Count)
system.switch_cpus.committedInstType_0::FloatDiv            0      0.00%     74.51% # Class of committed instruction (Count)
system.switch_cpus.committedInstType_0::FloatMisc            0      0.00%     74.51% # Class of committed instruction (Count)
system.switch_cpus.committedInstType_0::FloatSqrt            0      0.00%     74.51% # Class of committed instruction (Count)
system.switch_cpus.committedInstType_0::SimdAdd            0      0.00%     74.51% # Class of committed instruction (Count)
system.switch_cpus.committedInstType_0::SimdAddAcc            0      0.00%     74.51% # Class of committed instruction (Count)
system.switch_cpus.committedInstType_0::SimdAlu            0      0.00%     74.51% # Class of committed instruction (Count)
system.switch_cpus.committedInstType_0::SimdCmp            0      0.00%     74.51% # Class of committed instruction (Count)
system.switch_cpus.committedInstType_0::SimdCvt            0      0.00%     74.51% # Class of committed instruction (Count)
system.switch_cpus.committedInstType_0::SimdMisc            0      0.00%     74.51% # Class of committed instruction (Count)
system.switch_cpus.committedInstType_0::SimdMult            0      0.00%     74.51% # Class of committed instruction (Count)
system.switch_cpus.committedInstType_0::SimdMultAcc            0      0.00%     74.51% # Class of committed instruction (Count)
system.switch_cpus.committedInstType_0::SimdShift            0      0.00%     74.51% # Class of committed instruction (Count)
system.switch_cpus.committedInstType_0::SimdShiftAcc            0      0.00%     74.51% # Class of committed instruction (Count)
system.switch_cpus.committedInstType_0::SimdDiv            0      0.00%     74.51% # Class of committed instruction (Count)
system.switch_cpus.committedInstType_0::SimdSqrt            0      0.00%     74.51% # Class of committed instruction (Count)
system.switch_cpus.committedInstType_0::SimdFloatAdd            0      0.00%     74.51% # Class of committed instruction (Count)
system.switch_cpus.committedInstType_0::SimdFloatAlu            0      0.00%     74.51% # Class of committed instruction (Count)
system.switch_cpus.committedInstType_0::SimdFloatCmp            0      0.00%     74.51% # Class of committed instruction (Count)
system.switch_cpus.committedInstType_0::SimdFloatCvt            0      0.00%     74.51% # Class of committed instruction (Count)
system.switch_cpus.committedInstType_0::SimdFloatDiv            0      0.00%     74.51% # Class of committed instruction (Count)
system.switch_cpus.committedInstType_0::SimdFloatMisc            0      0.00%     74.51% # Class of committed instruction (Count)
system.switch_cpus.committedInstType_0::SimdFloatMult            0      0.00%     74.51% # Class of committed instruction (Count)
system.switch_cpus.committedInstType_0::SimdFloatMultAcc            0      0.00%     74.51% # Class of committed instruction (Count)
system.switch_cpus.committedInstType_0::SimdFloatSqrt            0      0.00%     74.51% # Class of committed instruction (Count)
system.switch_cpus.committedInstType_0::SimdReduceAdd            0      0.00%     74.51% # Class of committed instruction (Count)
system.switch_cpus.committedInstType_0::SimdReduceAlu            0      0.00%     74.51% # Class of committed instruction (Count)
system.switch_cpus.committedInstType_0::SimdReduceCmp            0      0.00%     74.51% # Class of committed instruction (Count)
system.switch_cpus.committedInstType_0::SimdFloatReduceAdd            0      0.00%     74.51% # Class of committed instruction (Count)
system.switch_cpus.committedInstType_0::SimdFloatReduceCmp            0      0.00%     74.51% # Class of committed instruction (Count)
system.switch_cpus.committedInstType_0::SimdAes            0      0.00%     74.51% # Class of committed instruction (Count)
system.switch_cpus.committedInstType_0::SimdAesMix            0      0.00%     74.51% # Class of committed instruction (Count)
system.switch_cpus.committedInstType_0::SimdSha1Hash            0      0.00%     74.51% # Class of committed instruction (Count)
system.switch_cpus.committedInstType_0::SimdSha1Hash2            0      0.00%     74.51% # Class of committed instruction (Count)
system.switch_cpus.committedInstType_0::SimdSha256Hash            0      0.00%     74.51% # Class of committed instruction (Count)
system.switch_cpus.committedInstType_0::SimdSha256Hash2            0      0.00%     74.51% # Class of committed instruction (Count)
system.switch_cpus.committedInstType_0::SimdShaSigma2            0      0.00%     74.51% # Class of committed instruction (Count)
system.switch_cpus.committedInstType_0::SimdShaSigma3            0      0.00%     74.51% # Class of committed instruction (Count)
system.switch_cpus.committedInstType_0::SimdPredAlu            0      0.00%     74.51% # Class of committed instruction (Count)
system.switch_cpus.committedInstType_0::MemRead     35129797     20.20%     94.71% # Class of committed instruction (Count)
system.switch_cpus.committedInstType_0::MemWrite      9197647      5.29%    100.00% # Class of committed instruction (Count)
system.switch_cpus.committedInstType_0::FloatMemRead         1161      0.00%    100.00% # Class of committed instruction (Count)
system.switch_cpus.committedInstType_0::FloatMemWrite          774      0.00%    100.00% # Class of committed instruction (Count)
system.switch_cpus.committedInstType_0::IprAccess            0      0.00%    100.00% # Class of committed instruction (Count)
system.switch_cpus.committedInstType_0::InstPrefetch            0      0.00%    100.00% # Class of committed instruction (Count)
system.switch_cpus.committedInstType_0::total    173938542                       # Class of committed instruction (Count)
system.switch_cpus.branchPred.lookups               0                       # Number of BP lookups (Count)
system.switch_cpus.branchPred.condPredicted            0                       # Number of conditional branches predicted (Count)
system.switch_cpus.branchPred.condIncorrect            0                       # Number of conditional branches incorrect (Count)
system.switch_cpus.branchPred.BTBLookups            0                       # Number of BTB lookups (Count)
system.switch_cpus.branchPred.BTBHits               0                       # Number of BTB hits (Count)
system.switch_cpus.branchPred.BTBHitRatio          nan                       # BTB Hit Ratio (Ratio)
system.switch_cpus.branchPred.RASUsed               0                       # Number of times the RAS was used to get a target. (Count)
system.switch_cpus.branchPred.RASIncorrect            0                       # Number of incorrect RAS predictions. (Count)
system.switch_cpus.branchPred.indirectLookups            0                       # Number of indirect predictor lookups. (Count)
system.switch_cpus.branchPred.indirectHits            0                       # Number of indirect target hits. (Count)
system.switch_cpus.branchPred.indirectMisses            0                       # Number of indirect misses. (Count)
system.switch_cpus.branchPred.indirectMispredicted            0                       # Number of mispredicted indirect branches. (Count)
system.switch_cpus.fetch2.intInstructions            0                       # Number of integer instructions successfully decoded (Count)
system.switch_cpus.fetch2.fpInstructions            0                       # Number of floating point instructions successfully decoded (Count)
system.switch_cpus.fetch2.vecInstructions            0                       # Number of SIMD instructions successfully decoded (Count)
system.switch_cpus.fetch2.loadInstructions            0                       # Number of memory load instructions successfully decoded (Count)
system.switch_cpus.fetch2.storeInstructions            0                       # Number of memory store instructions successfully decoded (Count)
system.switch_cpus.fetch2.amoInstructions            0                       # Number of memory atomic instructions successfully decoded (Count)
system.switch_cpus.mmu.dtb.rdAccesses        45052955                       # TLB accesses on read requests (Count)
system.switch_cpus.mmu.dtb.wrAccesses         9418249                       # TLB accesses on write requests (Count)
system.switch_cpus.mmu.dtb.rdMisses           2441995                       # TLB misses on read requests (Count)
system.switch_cpus.mmu.dtb.wrMisses             46008                       # TLB misses on write requests (Count)
system.switch_cpus.mmu.dtb.walker.power_state.pwrStateResidencyTicks::UNDEFINED 2318062271000                       # Cumulative time (in ticks) in various power states (Tick)
system.switch_cpus.mmu.itb.rdAccesses               0                       # TLB accesses on read requests (Count)
system.switch_cpus.mmu.itb.wrAccesses        40889431                       # TLB accesses on write requests (Count)
system.switch_cpus.mmu.itb.rdMisses                 0                       # TLB misses on read requests (Count)
system.switch_cpus.mmu.itb.wrMisses                 4                       # TLB misses on write requests (Count)
system.switch_cpus.mmu.itb.walker.power_state.pwrStateResidencyTicks::UNDEFINED 2318062271000                       # Cumulative time (in ticks) in various power states (Tick)
system.switch_cpus.power_state.pwrStateResidencyTicks::OFF 2318062271000                       # Cumulative time (in ticks) in various power states (Tick)
system.switch_cpus.thread_0.numInsts        100000000                       # Number of Instructions committed (Count)
system.switch_cpus.thread_0.numOps          173938542                       # Number of Ops committed (Count)
system.switch_cpus.thread_0.numMemRefs              0                       # Number of Memory References (Count)
system.tol2bus.transDist::ReadResp            7323572                       # Transaction distribution (Count)
system.tol2bus.transDist::WritebackDirty      1015660                       # Transaction distribution (Count)
system.tol2bus.transDist::CleanEvict         11637828                       # Transaction distribution (Count)
system.tol2bus.transDist::ReadExReq            382656                       # Transaction distribution (Count)
system.tol2bus.transDist::ReadExResp           382656                       # Transaction distribution (Count)
system.tol2bus.transDist::ReadCleanReq             26                       # Transaction distribution (Count)
system.tol2bus.transDist::ReadSharedReq       7323546                       # Transaction distribution (Count)
system.tol2bus.pktCount_system.cpu.icache.mem_side_port::system.l2.cpu_side_port           78                       # Packet count per connected requestor and responder (Count)
system.tol2bus.pktCount_system.cpu.dcache.mem_side_port::system.l2.cpu_side_port     23118606                       # Packet count per connected requestor and responder (Count)
system.tol2bus.pktCount::total               23118684                       # Packet count per connected requestor and responder (Count)
system.tol2bus.pktSize_system.cpu.icache.mem_side_port::system.l2.cpu_side_port         1664                       # Cumulative packet size per connected requestor and responder (Byte)
system.tol2bus.pktSize_system.cpu.dcache.mem_side_port::system.l2.cpu_side_port    542824000                       # Cumulative packet size per connected requestor and responder (Byte)
system.tol2bus.pktSize::total               542825664                       # Cumulative packet size per connected requestor and responder (Byte)
system.tol2bus.snoops                         4947260                       # Total snoops (Count)
system.tol2bus.snoopTraffic                  15375168                       # Total snoop traffic (Byte)
system.tol2bus.snoopFanout::samples          12653488                       # Request fanout histogram (Count)
system.tol2bus.snoopFanout::mean             0.000002                       # Request fanout histogram (Count)
system.tol2bus.snoopFanout::stdev            0.001433                       # Request fanout histogram (Count)
system.tol2bus.snoopFanout::underflows              0      0.00%      0.00% # Request fanout histogram (Count)
system.tol2bus.snoopFanout::0                12653462    100.00%    100.00% # Request fanout histogram (Count)
system.tol2bus.snoopFanout::1                      26      0.00%    100.00% # Request fanout histogram (Count)
system.tol2bus.snoopFanout::2                       0      0.00%    100.00% # Request fanout histogram (Count)
system.tol2bus.snoopFanout::3                       0      0.00%    100.00% # Request fanout histogram (Count)
system.tol2bus.snoopFanout::4                       0      0.00%    100.00% # Request fanout histogram (Count)
system.tol2bus.snoopFanout::overflows               0      0.00%    100.00% # Request fanout histogram (Count)
system.tol2bus.snoopFanout::min_value               0                       # Request fanout histogram (Count)
system.tol2bus.snoopFanout::max_value               1                       # Request fanout histogram (Count)
system.tol2bus.snoopFanout::total            12653488                       # Request fanout histogram (Count)
system.tol2bus.power_state.pwrStateResidencyTicks::UNDEFINED 2318062271000                       # Cumulative time (in ticks) in various power states (Tick)
system.tol2bus.reqLayer0.occupancy         8481651000                       # Layer occupancy (ticks) (Tick)
system.tol2bus.reqLayer0.utilization              0.0                       # Layer utilization (Ratio)
system.tol2bus.respLayer0.occupancy             39000                       # Layer occupancy (ticks) (Tick)
system.tol2bus.respLayer0.utilization             0.0                       # Layer utilization (Ratio)
system.tol2bus.respLayer1.occupancy       11559303000                       # Layer occupancy (ticks) (Tick)
system.tol2bus.respLayer1.utilization             0.0                       # Layer utilization (Ratio)
system.tol2bus.snoop_filter.totRequests      15412456                       # Total number of requests made to the snoop filter. (Count)
system.tol2bus.snoop_filter.hitSingleRequests      7706228                       # Number of requests hitting in the snoop filter with a single holder of the requested data. (Count)
system.tol2bus.snoop_filter.hitMultiRequests            0                       # Number of requests hitting in the snoop filter with multiple (>1) holders of the requested data. (Count)
system.tol2bus.snoop_filter.totSnoops              26                       # Total number of snoops made to the snoop filter. (Count)
system.tol2bus.snoop_filter.hitSingleSnoops           26                       # Number of snoops hitting in the snoop filter with a single holder of the requested data. (Count)
system.tol2bus.snoop_filter.hitMultiSnoops            0                       # Number of snoops hitting in the snoop filter with multiple (>1) holders of the requested data. (Count)
system.voltage_domain.voltage                       1                       # Voltage in Volts (Volt)
system.workload.inst.arm                            0                       # number of arm instructions executed (Count)
system.workload.inst.quiesce                        0                       # number of quiesce instructions executed (Count)
system.switch_cpus.idleCycles              2200075437                       # Total number of cycles that the object has spent stopped (Unspecified)
system.switch_cpus.tickCycles               284505238                       # Number of cycles that the object actually ticked (Unspecified)

---------- End Simulation Statistics   ----------
