
---------- Begin Simulation Statistics ----------
simSeconds                                   1.243764                       # Number of seconds simulated (Second)
simTicks                                 1243764196500                       # Number of ticks simulated (Tick)
finalTick                                2319536130000                       # Number of ticks from beginning of simulation (restored from checkpoints and never reset) (Tick)
simFreq                                  1000000000000                       # The number of ticks per simulated second ((Tick/Second))
hostSeconds                                    731.49                       # Real time elapsed on the host (Second)
hostTickRate                               1700311384                       # The number of ticks simulated per host second (ticks/s) ((Tick/Second))
hostMemory                                    8839360                       # Number of bytes of host memory used (Byte)
simInsts                                   1100000001                       # Number of instructions simulated (Count)
simOps                                     1997606153                       # Number of ops (including micro ops) simulated (Count)
hostInstRate                                  1503776                       # Simulator instruction rate (inst/s) ((Count/Second))
hostOpRate                                    2730865                       # Simulator op (including micro ops) rate (op/s) ((Count/Second))
system.clk_domain.clock                          1000                       # Clock period in ticks (Tick)
system.cpu.numCycles                                0                       # Number of cpu cycles simulated (Cycle)
system.cpu.numWorkItemsStarted                      0                       # Number of work items this cpu started (Count)
system.cpu.numWorkItemsCompleted                    0                       # Number of work items this cpu completed (Count)
system.cpu.dcache.demandHits::switch_cpus.data     45232524                       # number of demand (read+write) hits (Count)
system.cpu.dcache.demandHits::total          45232524                       # number of demand (read+write) hits (Count)
system.cpu.dcache.overallHits::switch_cpus.data     45232524                       # number of overall hits (Count)
system.cpu.dcache.overallHits::total         45232524                       # number of overall hits (Count)
system.cpu.dcache.demandMisses::switch_cpus.data      8332684                       # number of demand (read+write) misses (Count)
system.cpu.dcache.demandMisses::total         8332684                       # number of demand (read+write) misses (Count)
system.cpu.dcache.overallMisses::switch_cpus.data      8332684                       # number of overall misses (Count)
system.cpu.dcache.overallMisses::total        8332684                       # number of overall misses (Count)
system.cpu.dcache.demandMissLatency::switch_cpus.data 1196358304500                       # number of demand (read+write) miss ticks (Tick)
system.cpu.dcache.demandMissLatency::total 1196358304500                       # number of demand (read+write) miss ticks (Tick)
system.cpu.dcache.overallMissLatency::switch_cpus.data 1196358304500                       # number of overall miss ticks (Tick)
system.cpu.dcache.overallMissLatency::total 1196358304500                       # number of overall miss ticks (Tick)
system.cpu.dcache.demandAccesses::switch_cpus.data     53565208                       # number of demand (read+write) accesses (Count)
system.cpu.dcache.demandAccesses::total      53565208                       # number of demand (read+write) accesses (Count)
system.cpu.dcache.overallAccesses::switch_cpus.data     53565208                       # number of overall (read+write) accesses (Count)
system.cpu.dcache.overallAccesses::total     53565208                       # number of overall (read+write) accesses (Count)
system.cpu.dcache.demandMissRate::switch_cpus.data     0.155561                       # miss rate for demand accesses (Ratio)
system.cpu.dcache.demandMissRate::total      0.155561                       # miss rate for demand accesses (Ratio)
system.cpu.dcache.overallMissRate::switch_cpus.data     0.155561                       # miss rate for overall accesses (Ratio)
system.cpu.dcache.overallMissRate::total     0.155561                       # miss rate for overall accesses (Ratio)
system.cpu.dcache.demandAvgMissLatency::switch_cpus.data 143574.183840                       # average overall miss latency in ticks ((Tick/Count))
system.cpu.dcache.demandAvgMissLatency::total 143574.183840                       # average overall miss latency in ticks ((Tick/Count))
system.cpu.dcache.overallAvgMissLatency::switch_cpus.data 143574.183840                       # average overall miss latency ((Tick/Count))
system.cpu.dcache.overallAvgMissLatency::total 143574.183840                       # average overall miss latency ((Tick/Count))
system.cpu.dcache.blockedCycles::no_mshrs            0                       # number of cycles access was blocked (Cycle)
system.cpu.dcache.blockedCycles::no_targets            0                       # number of cycles access was blocked (Cycle)
system.cpu.dcache.blockedCauses::no_mshrs            0                       # number of times access was blocked (Count)
system.cpu.dcache.blockedCauses::no_targets            0                       # number of times access was blocked (Count)
system.cpu.dcache.avgBlocked::no_mshrs            nan                       # average number of cycles each access was blocked ((Cycle/Count))
system.cpu.dcache.avgBlocked::no_targets          nan                       # average number of cycles each access was blocked ((Cycle/Count))
system.cpu.dcache.writebacks::writebacks      7705982                       # number of writebacks (Count)
system.cpu.dcache.writebacks::total           7705982                       # number of writebacks (Count)
system.cpu.dcache.demandMshrHits::switch_cpus.data       542129                       # number of demand (read+write) MSHR hits (Count)
system.cpu.dcache.demandMshrHits::total        542129                       # number of demand (read+write) MSHR hits (Count)
system.cpu.dcache.overallMshrHits::switch_cpus.data       542129                       # number of overall MSHR hits (Count)
system.cpu.dcache.overallMshrHits::total       542129                       # number of overall MSHR hits (Count)
system.cpu.dcache.demandMshrMisses::switch_cpus.data      7790555                       # number of demand (read+write) MSHR misses (Count)
system.cpu.dcache.demandMshrMisses::total      7790555                       # number of demand (read+write) MSHR misses (Count)
system.cpu.dcache.overallMshrMisses::switch_cpus.data      7790555                       # number of overall MSHR misses (Count)
system.cpu.dcache.overallMshrMisses::total      7790555                       # number of overall MSHR misses (Count)
system.cpu.dcache.demandMshrMissLatency::switch_cpus.data 1114760393000                       # number of demand (read+write) MSHR miss ticks (Tick)
system.cpu.dcache.demandMshrMissLatency::total 1114760393000                       # number of demand (read+write) MSHR miss ticks (Tick)
system.cpu.dcache.overallMshrMissLatency::switch_cpus.data 1114760393000                       # number of overall MSHR miss ticks (Tick)
system.cpu.dcache.overallMshrMissLatency::total 1114760393000                       # number of overall MSHR miss ticks (Tick)
system.cpu.dcache.demandMshrMissRate::switch_cpus.data     0.145441                       # mshr miss ratio for demand accesses (Ratio)
system.cpu.dcache.demandMshrMissRate::total     0.145441                       # mshr miss ratio for demand accesses (Ratio)
system.cpu.dcache.overallMshrMissRate::switch_cpus.data     0.145441                       # mshr miss ratio for overall accesses (Ratio)
system.cpu.dcache.overallMshrMissRate::total     0.145441                       # mshr miss ratio for overall accesses (Ratio)
system.cpu.dcache.demandAvgMshrMissLatency::switch_cpus.data 143091.267952                       # average overall mshr miss latency ((Tick/Count))
system.cpu.dcache.demandAvgMshrMissLatency::total 143091.267952                       # average overall mshr miss latency ((Tick/Count))
system.cpu.dcache.overallAvgMshrMissLatency::switch_cpus.data 143091.267952                       # average overall mshr miss latency ((Tick/Count))
system.cpu.dcache.overallAvgMshrMissLatency::total 143091.267952                       # average overall mshr miss latency ((Tick/Count))
system.cpu.dcache.replacements                7705889                       # number of replacements (Count)
system.cpu.dcache.ReadReq.hits::switch_cpus.data     36803767                       # number of ReadReq hits (Count)
system.cpu.dcache.ReadReq.hits::total        36803767                       # number of ReadReq hits (Count)
system.cpu.dcache.ReadReq.misses::switch_cpus.data      7563021                       # number of ReadReq misses (Count)
system.cpu.dcache.ReadReq.misses::total       7563021                       # number of ReadReq misses (Count)
system.cpu.dcache.ReadReq.missLatency::switch_cpus.data 1125946081500                       # number of ReadReq miss ticks (Tick)
system.cpu.dcache.ReadReq.missLatency::total 1125946081500                       # number of ReadReq miss ticks (Tick)
system.cpu.dcache.ReadReq.accesses::switch_cpus.data     44366788                       # number of ReadReq accesses(hits+misses) (Count)
system.cpu.dcache.ReadReq.accesses::total     44366788                       # number of ReadReq accesses(hits+misses) (Count)
system.cpu.dcache.ReadReq.missRate::switch_cpus.data     0.170466                       # miss rate for ReadReq accesses (Ratio)
system.cpu.dcache.ReadReq.missRate::total     0.170466                       # miss rate for ReadReq accesses (Ratio)
system.cpu.dcache.ReadReq.avgMissLatency::switch_cpus.data 148875.175872                       # average ReadReq miss latency ((Tick/Count))
system.cpu.dcache.ReadReq.avgMissLatency::total 148875.175872                       # average ReadReq miss latency ((Tick/Count))
system.cpu.dcache.ReadReq.mshrHits::switch_cpus.data       239200                       # number of ReadReq MSHR hits (Count)
system.cpu.dcache.ReadReq.mshrHits::total       239200                       # number of ReadReq MSHR hits (Count)
system.cpu.dcache.ReadReq.mshrMisses::switch_cpus.data      7323821                       # number of ReadReq MSHR misses (Count)
system.cpu.dcache.ReadReq.mshrMisses::total      7323821                       # number of ReadReq MSHR misses (Count)
system.cpu.dcache.ReadReq.mshrMissLatency::switch_cpus.data 1077637797000                       # number of ReadReq MSHR miss ticks (Tick)
system.cpu.dcache.ReadReq.mshrMissLatency::total 1077637797000                       # number of ReadReq MSHR miss ticks (Tick)
system.cpu.dcache.ReadReq.mshrMissRate::switch_cpus.data     0.165074                       # mshr miss rate for ReadReq accesses (Ratio)
system.cpu.dcache.ReadReq.mshrMissRate::total     0.165074                       # mshr miss rate for ReadReq accesses (Ratio)
system.cpu.dcache.ReadReq.avgMshrMissLatency::switch_cpus.data 147141.471235                       # average ReadReq mshr miss latency ((Tick/Count))
system.cpu.dcache.ReadReq.avgMshrMissLatency::total 147141.471235                       # average ReadReq mshr miss latency ((Tick/Count))
system.cpu.dcache.WriteReq.hits::switch_cpus.data      8428757                       # number of WriteReq hits (Count)
system.cpu.dcache.WriteReq.hits::total        8428757                       # number of WriteReq hits (Count)
system.cpu.dcache.WriteReq.misses::switch_cpus.data       769663                       # number of WriteReq misses (Count)
system.cpu.dcache.WriteReq.misses::total       769663                       # number of WriteReq misses (Count)
system.cpu.dcache.WriteReq.missLatency::switch_cpus.data  70412223000                       # number of WriteReq miss ticks (Tick)
system.cpu.dcache.WriteReq.missLatency::total  70412223000                       # number of WriteReq miss ticks (Tick)
system.cpu.dcache.WriteReq.accesses::switch_cpus.data      9198420                       # number of WriteReq accesses(hits+misses) (Count)
system.cpu.dcache.WriteReq.accesses::total      9198420                       # number of WriteReq accesses(hits+misses) (Count)
system.cpu.dcache.WriteReq.missRate::switch_cpus.data     0.083673                       # miss rate for WriteReq accesses (Ratio)
system.cpu.dcache.WriteReq.missRate::total     0.083673                       # miss rate for WriteReq accesses (Ratio)
system.cpu.dcache.WriteReq.avgMissLatency::switch_cpus.data 91484.484768                       # average WriteReq miss latency ((Tick/Count))
system.cpu.dcache.WriteReq.avgMissLatency::total 91484.484768                       # average WriteReq miss latency ((Tick/Count))
system.cpu.dcache.WriteReq.mshrHits::switch_cpus.data       302929                       # number of WriteReq MSHR hits (Count)
system.cpu.dcache.WriteReq.mshrHits::total       302929                       # number of WriteReq MSHR hits (Count)
system.cpu.dcache.WriteReq.mshrMisses::switch_cpus.data       466734                       # number of WriteReq MSHR misses (Count)
system.cpu.dcache.WriteReq.mshrMisses::total       466734                       # number of WriteReq MSHR misses (Count)
system.cpu.dcache.WriteReq.mshrMissLatency::switch_cpus.data  37122596000                       # number of WriteReq MSHR miss ticks (Tick)
system.cpu.dcache.WriteReq.mshrMissLatency::total  37122596000                       # number of WriteReq MSHR miss ticks (Tick)
system.cpu.dcache.WriteReq.mshrMissRate::switch_cpus.data     0.050741                       # mshr miss rate for WriteReq accesses (Ratio)
system.cpu.dcache.WriteReq.mshrMissRate::total     0.050741                       # mshr miss rate for WriteReq accesses (Ratio)
system.cpu.dcache.WriteReq.avgMshrMissLatency::switch_cpus.data 79536.943955                       # average WriteReq mshr miss latency ((Tick/Count))
system.cpu.dcache.WriteReq.avgMshrMissLatency::total 79536.943955                       # average WriteReq mshr miss latency ((Tick/Count))
system.cpu.dcache.power_state.pwrStateResidencyTicks::UNDEFINED 2319536130000                       # Cumulative time (in ticks) in various power states (Tick)
system.cpu.dcache.tags.tagsInUse                  256                       # Average ticks per tags in use ((Tick/Count))
system.cpu.dcache.tags.totalRefs             53049542                       # Total number of references to valid blocks. (Count)
system.cpu.dcache.tags.sampledRefs            7706145                       # Sample count of references to valid blocks. (Count)
system.cpu.dcache.tags.avgRefs               6.884057                       # Average number of references to valid blocks. ((Count/Count))
system.cpu.dcache.tags.warmupTick                   0                       # The tick when the warmup percentage was hit. (Tick)
system.cpu.dcache.tags.occupancies::cpu.data     0.012737                       # Average occupied blocks per tick, per requestor ((Count/Tick))
system.cpu.dcache.tags.occupancies::switch_cpus.data   255.987263                       # Average occupied blocks per tick, per requestor ((Count/Tick))
system.cpu.dcache.tags.avgOccs::cpu.data     0.000050                       # Average percentage of cache occupancy ((Ratio/Tick))
system.cpu.dcache.tags.avgOccs::switch_cpus.data     0.999950                       # Average percentage of cache occupancy ((Ratio/Tick))
system.cpu.dcache.tags.avgOccs::total               1                       # Average percentage of cache occupancy ((Ratio/Tick))
system.cpu.dcache.tags.occupanciesTaskId::1024          256                       # Occupied blocks per task id (Count)
system.cpu.dcache.tags.ageTaskId_1024::0           66                       # Occupied blocks per task id, per block age (Count)
system.cpu.dcache.tags.ageTaskId_1024::1          171                       # Occupied blocks per task id, per block age (Count)
system.cpu.dcache.tags.ageTaskId_1024::2           19                       # Occupied blocks per task id, per block age (Count)
system.cpu.dcache.tags.ratioOccsTaskId::1024            1                       # Ratio of occupied blocks and all blocks, per task id (Ratio)
system.cpu.dcache.tags.tagAccesses           61271097                       # Number of tag accesses (Count)
system.cpu.dcache.tags.dataAccesses          61271097                       # Number of data accesses (Count)
system.cpu.dcache.tags.power_state.pwrStateResidencyTicks::UNDEFINED 2319536130000                       # Cumulative time (in ticks) in various power states (Tick)
system.cpu.dtb_walker_cache.blockedCycles::no_mshrs            0                       # number of cycles access was blocked (Cycle)
system.cpu.dtb_walker_cache.blockedCycles::no_targets            0                       # number of cycles access was blocked (Cycle)
system.cpu.dtb_walker_cache.blockedCauses::no_mshrs            0                       # number of times access was blocked (Count)
system.cpu.dtb_walker_cache.blockedCauses::no_targets            0                       # number of times access was blocked (Count)
system.cpu.dtb_walker_cache.avgBlocked::no_mshrs          nan                       # average number of cycles each access was blocked ((Cycle/Count))
system.cpu.dtb_walker_cache.avgBlocked::no_targets          nan                       # average number of cycles each access was blocked ((Cycle/Count))
system.cpu.dtb_walker_cache.replacements            0                       # number of replacements (Count)
system.cpu.dtb_walker_cache.power_state.pwrStateResidencyTicks::UNDEFINED 2319536130000                       # Cumulative time (in ticks) in various power states (Tick)
system.cpu.dtb_walker_cache.tags.tagsInUse            0                       # Average ticks per tags in use ((Tick/Count))
system.cpu.dtb_walker_cache.tags.totalRefs            0                       # Total number of references to valid blocks. (Count)
system.cpu.dtb_walker_cache.tags.sampledRefs            0                       # Sample count of references to valid blocks. (Count)
system.cpu.dtb_walker_cache.tags.avgRefs          nan                       # Average number of references to valid blocks. ((Count/Count))
system.cpu.dtb_walker_cache.tags.warmupTick            0                       # The tick when the warmup percentage was hit. (Tick)
system.cpu.dtb_walker_cache.tags.tagAccesses            0                       # Number of tag accesses (Count)
system.cpu.dtb_walker_cache.tags.dataAccesses            0                       # Number of data accesses (Count)
system.cpu.dtb_walker_cache.tags.power_state.pwrStateResidencyTicks::UNDEFINED 2319536130000                       # Cumulative time (in ticks) in various power states (Tick)
system.cpu.exec_context.thread_0.numInsts            0                       # Number of instructions committed (Count)
system.cpu.exec_context.thread_0.numOps             0                       # Number of ops (including micro ops) committed (Count)
system.cpu.exec_context.thread_0.numIntAluAccesses            0                       # Number of integer alu accesses (Count)
system.cpu.exec_context.thread_0.numFpAluAccesses            0                       # Number of float alu accesses (Count)
system.cpu.exec_context.thread_0.numVecAluAccesses            0                       # Number of vector alu accesses (Count)
system.cpu.exec_context.thread_0.numCallsReturns            0                       # Number of times a function call or return occured (Count)
system.cpu.exec_context.thread_0.numCondCtrlInsts            0                       # Number of instructions that are conditional controls (Count)
system.cpu.exec_context.thread_0.numIntInsts            0                       # Number of integer instructions (Count)
system.cpu.exec_context.thread_0.numFpInsts            0                       # Number of float instructions (Count)
system.cpu.exec_context.thread_0.numVecInsts            0                       # Number of vector instructions (Count)
system.cpu.exec_context.thread_0.numIntRegReads            0                       # Number of times the integer registers were read (Count)
system.cpu.exec_context.thread_0.numIntRegWrites            0                       # Number of times the integer registers were written (Count)
system.cpu.exec_context.thread_0.numFpRegReads            0                       # Number of times the floating registers were read (Count)
system.cpu.exec_context.thread_0.numFpRegWrites            0                       # Number of times the floating registers were written (Count)
system.cpu.exec_context.thread_0.numVecRegReads            0                       # Number of times the vector registers were read (Count)
system.cpu.exec_context.thread_0.numVecRegWrites            0                       # Number of times the vector registers were written (Count)
system.cpu.exec_context.thread_0.numVecPredRegReads            0                       # Number of times the predicate registers were read (Count)
system.cpu.exec_context.thread_0.numVecPredRegWrites            0                       # Number of times the predicate registers were written (Count)
system.cpu.exec_context.thread_0.numMiscRegReads            0                       # Number of times the Misc registers were read (Count)
system.cpu.exec_context.thread_0.numMiscRegWrites            0                       # Number of times the Misc registers were written (Count)
system.cpu.exec_context.thread_0.numMemRefs            0                       # Number of memory refs (Count)
system.cpu.exec_context.thread_0.numLoadInsts            0                       # Number of load instructions (Count)
system.cpu.exec_context.thread_0.numStoreInsts            0                       # Number of store instructions (Count)
system.cpu.exec_context.thread_0.numIdleCycles            0                       # Number of idle cycles (Cycle)
system.cpu.exec_context.thread_0.numBusyCycles            0                       # Number of busy cycles (Cycle)
system.cpu.exec_context.thread_0.notIdleFraction            1                       # Percentage of non-idle cycles (Ratio)
system.cpu.exec_context.thread_0.idleFraction            0                       # Percentage of idle cycles (Ratio)
system.cpu.exec_context.thread_0.statExecutedInstType::No_OpClass            0                       # Class of executed instruction. (Count)
system.cpu.exec_context.thread_0.statExecutedInstType::IntAlu            0                       # Class of executed instruction. (Count)
system.cpu.exec_context.thread_0.statExecutedInstType::IntMult            0                       # Class of executed instruction. (Count)
system.cpu.exec_context.thread_0.statExecutedInstType::IntDiv            0                       # Class of executed instruction. (Count)
system.cpu.exec_context.thread_0.statExecutedInstType::FloatAdd            0                       # Class of executed instruction. (Count)
system.cpu.exec_context.thread_0.statExecutedInstType::FloatCmp            0                       # Class of executed instruction. (Count)
system.cpu.exec_context.thread_0.statExecutedInstType::FloatCvt            0                       # Class of executed instruction. (Count)
system.cpu.exec_context.thread_0.statExecutedInstType::FloatMult            0                       # Class of executed instruction. (Count)
system.cpu.exec_context.thread_0.statExecutedInstType::FloatMultAcc            0                       # Class of executed instruction. (Count)
system.cpu.exec_context.thread_0.statExecutedInstType::FloatDiv            0                       # Class of executed instruction. (Count)
system.cpu.exec_context.thread_0.statExecutedInstType::FloatMisc            0                       # Class of executed instruction. (Count)
system.cpu.exec_context.thread_0.statExecutedInstType::FloatSqrt            0                       # Class of executed instruction. (Count)
system.cpu.exec_context.thread_0.statExecutedInstType::SimdAdd            0                       # Class of executed instruction. (Count)
system.cpu.exec_context.thread_0.statExecutedInstType::SimdAddAcc            0                       # Class of executed instruction. (Count)
system.cpu.exec_context.thread_0.statExecutedInstType::SimdAlu            0                       # Class of executed instruction. (Count)
system.cpu.exec_context.thread_0.statExecutedInstType::SimdCmp            0                       # Class of executed instruction. (Count)
system.cpu.exec_context.thread_0.statExecutedInstType::SimdCvt            0                       # Class of executed instruction. (Count)
system.cpu.exec_context.thread_0.statExecutedInstType::SimdMisc            0                       # Class of executed instruction. (Count)
system.cpu.exec_context.thread_0.statExecutedInstType::SimdMult            0                       # Class of executed instruction. (Count)
system.cpu.exec_context.thread_0.statExecutedInstType::SimdMultAcc            0                       # Class of executed instruction. (Count)
system.cpu.exec_context.thread_0.statExecutedInstType::SimdShift            0                       # Class of executed instruction. (Count)
system.cpu.exec_context.thread_0.statExecutedInstType::SimdShiftAcc            0                       # Class of executed instruction. (Count)
system.cpu.exec_context.thread_0.statExecutedInstType::SimdDiv            0                       # Class of executed instruction. (Count)
system.cpu.exec_context.thread_0.statExecutedInstType::SimdSqrt            0                       # Class of executed instruction. (Count)
system.cpu.exec_context.thread_0.statExecutedInstType::SimdFloatAdd            0                       # Class of executed instruction. (Count)
system.cpu.exec_context.thread_0.statExecutedInstType::SimdFloatAlu            0                       # Class of executed instruction. (Count)
system.cpu.exec_context.thread_0.statExecutedInstType::SimdFloatCmp            0                       # Class of executed instruction. (Count)
system.cpu.exec_context.thread_0.statExecutedInstType::SimdFloatCvt            0                       # Class of executed instruction. (Count)
system.cpu.exec_context.thread_0.statExecutedInstType::SimdFloatDiv            0                       # Class of executed instruction. (Count)
system.cpu.exec_context.thread_0.statExecutedInstType::SimdFloatMisc            0                       # Class of executed instruction. (Count)
system.cpu.exec_context.thread_0.statExecutedInstType::SimdFloatMult            0                       # Class of executed instruction. (Count)
system.cpu.exec_context.thread_0.statExecutedInstType::SimdFloatMultAcc            0                       # Class of executed instruction. (Count)
system.cpu.exec_context.thread_0.statExecutedInstType::SimdFloatSqrt            0                       # Class of executed instruction. (Count)
system.cpu.exec_context.thread_0.statExecutedInstType::SimdReduceAdd            0                       # Class of executed instruction. (Count)
system.cpu.exec_context.thread_0.statExecutedInstType::SimdReduceAlu            0                       # Class of executed instruction. (Count)
system.cpu.exec_context.thread_0.statExecutedInstType::SimdReduceCmp            0                       # Class of executed instruction. (Count)
system.cpu.exec_context.thread_0.statExecutedInstType::SimdFloatReduceAdd            0                       # Class of executed instruction. (Count)
system.cpu.exec_context.thread_0.statExecutedInstType::SimdFloatReduceCmp            0                       # Class of executed instruction. (Count)
system.cpu.exec_context.thread_0.statExecutedInstType::SimdAes            0                       # Class of executed instruction. (Count)
system.cpu.exec_context.thread_0.statExecutedInstType::SimdAesMix            0                       # Class of executed instruction. (Count)
system.cpu.exec_context.thread_0.statExecutedInstType::SimdSha1Hash            0                       # Class of executed instruction. (Count)
system.cpu.exec_context.thread_0.statExecutedInstType::SimdSha1Hash2            0                       # Class of executed instruction. (Count)
system.cpu.exec_context.thread_0.statExecutedInstType::SimdSha256Hash            0                       # Class of executed instruction. (Count)
system.cpu.exec_context.thread_0.statExecutedInstType::SimdSha256Hash2            0                       # Class of executed instruction. (Count)
system.cpu.exec_context.thread_0.statExecutedInstType::SimdShaSigma2            0                       # Class of executed instruction. (Count)
system.cpu.exec_context.thread_0.statExecutedInstType::SimdShaSigma3            0                       # Class of executed instruction. (Count)
system.cpu.exec_context.thread_0.statExecutedInstType::SimdPredAlu            0                       # Class of executed instruction. (Count)
system.cpu.exec_context.thread_0.statExecutedInstType::MemRead            0                       # Class of executed instruction. (Count)
system.cpu.exec_context.thread_0.statExecutedInstType::MemWrite            0                       # Class of executed instruction. (Count)
system.cpu.exec_context.thread_0.statExecutedInstType::FloatMemRead            0                       # Class of executed instruction. (Count)
system.cpu.exec_context.thread_0.statExecutedInstType::FloatMemWrite            0                       # Class of executed instruction. (Count)
system.cpu.exec_context.thread_0.statExecutedInstType::IprAccess            0                       # Class of executed instruction. (Count)
system.cpu.exec_context.thread_0.statExecutedInstType::InstPrefetch            0                       # Class of executed instruction. (Count)
system.cpu.exec_context.thread_0.statExecutedInstType::total            0                       # Class of executed instruction. (Count)
system.cpu.icache.demandHits::switch_cpus.inst     40828563                       # number of demand (read+write) hits (Count)
system.cpu.icache.demandHits::total          40828563                       # number of demand (read+write) hits (Count)
system.cpu.icache.overallHits::switch_cpus.inst     40828563                       # number of overall hits (Count)
system.cpu.icache.overallHits::total         40828563                       # number of overall hits (Count)
system.cpu.icache.demandMisses::switch_cpus.inst           25                       # number of demand (read+write) misses (Count)
system.cpu.icache.demandMisses::total              25                       # number of demand (read+write) misses (Count)
system.cpu.icache.overallMisses::switch_cpus.inst           25                       # number of overall misses (Count)
system.cpu.icache.overallMisses::total             25                       # number of overall misses (Count)
system.cpu.icache.demandMissLatency::switch_cpus.inst      5327500                       # number of demand (read+write) miss ticks (Tick)
system.cpu.icache.demandMissLatency::total      5327500                       # number of demand (read+write) miss ticks (Tick)
system.cpu.icache.overallMissLatency::switch_cpus.inst      5327500                       # number of overall miss ticks (Tick)
system.cpu.icache.overallMissLatency::total      5327500                       # number of overall miss ticks (Tick)
system.cpu.icache.demandAccesses::switch_cpus.inst     40828588                       # number of demand (read+write) accesses (Count)
system.cpu.icache.demandAccesses::total      40828588                       # number of demand (read+write) accesses (Count)
system.cpu.icache.overallAccesses::switch_cpus.inst     40828588                       # number of overall (read+write) accesses (Count)
system.cpu.icache.overallAccesses::total     40828588                       # number of overall (read+write) accesses (Count)
system.cpu.icache.demandMissRate::switch_cpus.inst     0.000001                       # miss rate for demand accesses (Ratio)
system.cpu.icache.demandMissRate::total      0.000001                       # miss rate for demand accesses (Ratio)
system.cpu.icache.overallMissRate::switch_cpus.inst     0.000001                       # miss rate for overall accesses (Ratio)
system.cpu.icache.overallMissRate::total     0.000001                       # miss rate for overall accesses (Ratio)
system.cpu.icache.demandAvgMissLatency::switch_cpus.inst       213100                       # average overall miss latency in ticks ((Tick/Count))
system.cpu.icache.demandAvgMissLatency::total       213100                       # average overall miss latency in ticks ((Tick/Count))
system.cpu.icache.overallAvgMissLatency::switch_cpus.inst       213100                       # average overall miss latency ((Tick/Count))
system.cpu.icache.overallAvgMissLatency::total       213100                       # average overall miss latency ((Tick/Count))
system.cpu.icache.blockedCycles::no_mshrs            0                       # number of cycles access was blocked (Cycle)
system.cpu.icache.blockedCycles::no_targets            0                       # number of cycles access was blocked (Cycle)
system.cpu.icache.blockedCauses::no_mshrs            0                       # number of times access was blocked (Count)
system.cpu.icache.blockedCauses::no_targets            0                       # number of times access was blocked (Count)
system.cpu.icache.avgBlocked::no_mshrs            nan                       # average number of cycles each access was blocked ((Cycle/Count))
system.cpu.icache.avgBlocked::no_targets          nan                       # average number of cycles each access was blocked ((Cycle/Count))
system.cpu.icache.demandMshrMisses::switch_cpus.inst           25                       # number of demand (read+write) MSHR misses (Count)
system.cpu.icache.demandMshrMisses::total           25                       # number of demand (read+write) MSHR misses (Count)
system.cpu.icache.overallMshrMisses::switch_cpus.inst           25                       # number of overall MSHR misses (Count)
system.cpu.icache.overallMshrMisses::total           25                       # number of overall MSHR misses (Count)
system.cpu.icache.demandMshrMissLatency::switch_cpus.inst      5302500                       # number of demand (read+write) MSHR miss ticks (Tick)
system.cpu.icache.demandMshrMissLatency::total      5302500                       # number of demand (read+write) MSHR miss ticks (Tick)
system.cpu.icache.overallMshrMissLatency::switch_cpus.inst      5302500                       # number of overall MSHR miss ticks (Tick)
system.cpu.icache.overallMshrMissLatency::total      5302500                       # number of overall MSHR miss ticks (Tick)
system.cpu.icache.demandMshrMissRate::switch_cpus.inst     0.000001                       # mshr miss ratio for demand accesses (Ratio)
system.cpu.icache.demandMshrMissRate::total     0.000001                       # mshr miss ratio for demand accesses (Ratio)
system.cpu.icache.overallMshrMissRate::switch_cpus.inst     0.000001                       # mshr miss ratio for overall accesses (Ratio)
system.cpu.icache.overallMshrMissRate::total     0.000001                       # mshr miss ratio for overall accesses (Ratio)
system.cpu.icache.demandAvgMshrMissLatency::switch_cpus.inst       212100                       # average overall mshr miss latency ((Tick/Count))
system.cpu.icache.demandAvgMshrMissLatency::total       212100                       # average overall mshr miss latency ((Tick/Count))
system.cpu.icache.overallAvgMshrMissLatency::switch_cpus.inst       212100                       # average overall mshr miss latency ((Tick/Count))
system.cpu.icache.overallAvgMshrMissLatency::total       212100                       # average overall mshr miss latency ((Tick/Count))
system.cpu.icache.replacements                     25                       # number of replacements (Count)
system.cpu.icache.ReadReq.hits::switch_cpus.inst     40828563                       # number of ReadReq hits (Count)
system.cpu.icache.ReadReq.hits::total        40828563                       # number of ReadReq hits (Count)
system.cpu.icache.ReadReq.misses::switch_cpus.inst           25                       # number of ReadReq misses (Count)
system.cpu.icache.ReadReq.misses::total            25                       # number of ReadReq misses (Count)
system.cpu.icache.ReadReq.missLatency::switch_cpus.inst      5327500                       # number of ReadReq miss ticks (Tick)
system.cpu.icache.ReadReq.missLatency::total      5327500                       # number of ReadReq miss ticks (Tick)
system.cpu.icache.ReadReq.accesses::switch_cpus.inst     40828588                       # number of ReadReq accesses(hits+misses) (Count)
system.cpu.icache.ReadReq.accesses::total     40828588                       # number of ReadReq accesses(hits+misses) (Count)
system.cpu.icache.ReadReq.missRate::switch_cpus.inst     0.000001                       # miss rate for ReadReq accesses (Ratio)
system.cpu.icache.ReadReq.missRate::total     0.000001                       # miss rate for ReadReq accesses (Ratio)
system.cpu.icache.ReadReq.avgMissLatency::switch_cpus.inst       213100                       # average ReadReq miss latency ((Tick/Count))
system.cpu.icache.ReadReq.avgMissLatency::total       213100                       # average ReadReq miss latency ((Tick/Count))
system.cpu.icache.ReadReq.mshrMisses::switch_cpus.inst           25                       # number of ReadReq MSHR misses (Count)
system.cpu.icache.ReadReq.mshrMisses::total           25                       # number of ReadReq MSHR misses (Count)
system.cpu.icache.ReadReq.mshrMissLatency::switch_cpus.inst      5302500                       # number of ReadReq MSHR miss ticks (Tick)
system.cpu.icache.ReadReq.mshrMissLatency::total      5302500                       # number of ReadReq MSHR miss ticks (Tick)
system.cpu.icache.ReadReq.mshrMissRate::switch_cpus.inst     0.000001                       # mshr miss rate for ReadReq accesses (Ratio)
system.cpu.icache.ReadReq.mshrMissRate::total     0.000001                       # mshr miss rate for ReadReq accesses (Ratio)
system.cpu.icache.ReadReq.avgMshrMissLatency::switch_cpus.inst       212100                       # average ReadReq mshr miss latency ((Tick/Count))
system.cpu.icache.ReadReq.avgMshrMissLatency::total       212100                       # average ReadReq mshr miss latency ((Tick/Count))
system.cpu.icache.power_state.pwrStateResidencyTicks::UNDEFINED 2319536130000                       # Cumulative time (in ticks) in various power states (Tick)
system.cpu.icache.tags.tagsInUse                  256                       # Average ticks per tags in use ((Tick/Count))
system.cpu.icache.tags.totalRefs           1047554030                       # Total number of references to valid blocks. (Count)
system.cpu.icache.tags.sampledRefs                281                       # Sample count of references to valid blocks. (Count)
system.cpu.icache.tags.avgRefs           3727950.284698                       # Average number of references to valid blocks. ((Count/Count))
system.cpu.icache.tags.warmupTick                   0                       # The tick when the warmup percentage was hit. (Tick)
system.cpu.icache.tags.occupancies::cpu.inst   231.006949                       # Average occupied blocks per tick, per requestor ((Count/Tick))
system.cpu.icache.tags.occupancies::switch_cpus.inst    24.993051                       # Average occupied blocks per tick, per requestor ((Count/Tick))
system.cpu.icache.tags.avgOccs::cpu.inst     0.902371                       # Average percentage of cache occupancy ((Ratio/Tick))
system.cpu.icache.tags.avgOccs::switch_cpus.inst     0.097629                       # Average percentage of cache occupancy ((Ratio/Tick))
system.cpu.icache.tags.avgOccs::total               1                       # Average percentage of cache occupancy ((Ratio/Tick))
system.cpu.icache.tags.occupanciesTaskId::1024          256                       # Occupied blocks per task id (Count)
system.cpu.icache.tags.ageTaskId_1024::4          256                       # Occupied blocks per task id, per block age (Count)
system.cpu.icache.tags.ratioOccsTaskId::1024            1                       # Ratio of occupied blocks and all blocks, per task id (Ratio)
system.cpu.icache.tags.tagAccesses           40828613                       # Number of tag accesses (Count)
system.cpu.icache.tags.dataAccesses          40828613                       # Number of data accesses (Count)
system.cpu.icache.tags.power_state.pwrStateResidencyTicks::UNDEFINED 2319536130000                       # Cumulative time (in ticks) in various power states (Tick)
system.cpu.interrupts.clk_domain.clock           8000                       # Clock period in ticks (Tick)
system.cpu.itb_walker_cache.blockedCycles::no_mshrs            0                       # number of cycles access was blocked (Cycle)
system.cpu.itb_walker_cache.blockedCycles::no_targets            0                       # number of cycles access was blocked (Cycle)
system.cpu.itb_walker_cache.blockedCauses::no_mshrs            0                       # number of times access was blocked (Count)
system.cpu.itb_walker_cache.blockedCauses::no_targets            0                       # number of times access was blocked (Count)
system.cpu.itb_walker_cache.avgBlocked::no_mshrs          nan                       # average number of cycles each access was blocked ((Cycle/Count))
system.cpu.itb_walker_cache.avgBlocked::no_targets          nan                       # average number of cycles each access was blocked ((Cycle/Count))
system.cpu.itb_walker_cache.replacements            0                       # number of replacements (Count)
system.cpu.itb_walker_cache.power_state.pwrStateResidencyTicks::UNDEFINED 2319536130000                       # Cumulative time (in ticks) in various power states (Tick)
system.cpu.itb_walker_cache.tags.tagsInUse            0                       # Average ticks per tags in use ((Tick/Count))
system.cpu.itb_walker_cache.tags.totalRefs            0                       # Total number of references to valid blocks. (Count)
system.cpu.itb_walker_cache.tags.sampledRefs            0                       # Sample count of references to valid blocks. (Count)
system.cpu.itb_walker_cache.tags.avgRefs          nan                       # Average number of references to valid blocks. ((Count/Count))
system.cpu.itb_walker_cache.tags.warmupTick            0                       # The tick when the warmup percentage was hit. (Tick)
system.cpu.itb_walker_cache.tags.tagAccesses            0                       # Number of tag accesses (Count)
system.cpu.itb_walker_cache.tags.dataAccesses            0                       # Number of data accesses (Count)
system.cpu.itb_walker_cache.tags.power_state.pwrStateResidencyTicks::UNDEFINED 2319536130000                       # Cumulative time (in ticks) in various power states (Tick)
system.cpu.mmu.dtb.rdAccesses                       0                       # TLB accesses on read requests (Count)
system.cpu.mmu.dtb.wrAccesses                       0                       # TLB accesses on write requests (Count)
system.cpu.mmu.dtb.rdMisses                         0                       # TLB misses on read requests (Count)
system.cpu.mmu.dtb.wrMisses                         0                       # TLB misses on write requests (Count)
system.cpu.mmu.dtb.walker.power_state.pwrStateResidencyTicks::UNDEFINED 2319536130000                       # Cumulative time (in ticks) in various power states (Tick)
system.cpu.mmu.itb.rdAccesses                       0                       # TLB accesses on read requests (Count)
system.cpu.mmu.itb.wrAccesses                       0                       # TLB accesses on write requests (Count)
system.cpu.mmu.itb.rdMisses                         0                       # TLB misses on read requests (Count)
system.cpu.mmu.itb.wrMisses                         0                       # TLB misses on write requests (Count)
system.cpu.mmu.itb.walker.power_state.pwrStateResidencyTicks::UNDEFINED 2319536130000                       # Cumulative time (in ticks) in various power states (Tick)
system.cpu.power_state.pwrStateResidencyTicks::OFF 1243764196500                       # Cumulative time (in ticks) in various power states (Tick)
system.cpu.thread_0.numInsts                        0                       # Number of Instructions committed (Count)
system.cpu.thread_0.numOps                          0                       # Number of Ops committed (Count)
system.cpu.thread_0.numMemRefs                      0                       # Number of Memory References (Count)
system.cpu.workload.numSyscalls                     0                       # Number of system calls (Count)
system.cpu_clk_domain.clock                       500                       # Clock period in ticks (Tick)
system.cpu_voltage_domain.voltage                   1                       # Voltage in Volts (Volt)
system.l2.demandHits::switch_cpus.data        1192145                       # number of demand (read+write) hits (Count)
system.l2.demandHits::total                   1192145                       # number of demand (read+write) hits (Count)
system.l2.overallHits::switch_cpus.data       1192145                       # number of overall hits (Count)
system.l2.overallHits::total                  1192145                       # number of overall hits (Count)
system.l2.demandMisses::switch_cpus.inst           25                       # number of demand (read+write) misses (Count)
system.l2.demandMisses::switch_cpus.data      6513837                       # number of demand (read+write) misses (Count)
system.l2.demandMisses::total                 6513862                       # number of demand (read+write) misses (Count)
system.l2.overallMisses::switch_cpus.inst           25                       # number of overall misses (Count)
system.l2.overallMisses::switch_cpus.data      6513837                       # number of overall misses (Count)
system.l2.overallMisses::total                6513862                       # number of overall misses (Count)
system.l2.demandMissLatency::switch_cpus.inst      5265000                       # number of demand (read+write) miss ticks (Tick)
system.l2.demandMissLatency::switch_cpus.data 1100782469500                       # number of demand (read+write) miss ticks (Tick)
system.l2.demandMissLatency::total       1100787734500                       # number of demand (read+write) miss ticks (Tick)
system.l2.overallMissLatency::switch_cpus.inst      5265000                       # number of overall miss ticks (Tick)
system.l2.overallMissLatency::switch_cpus.data 1100782469500                       # number of overall miss ticks (Tick)
system.l2.overallMissLatency::total      1100787734500                       # number of overall miss ticks (Tick)
system.l2.demandAccesses::switch_cpus.inst           25                       # number of demand (read+write) accesses (Count)
system.l2.demandAccesses::switch_cpus.data      7705982                       # number of demand (read+write) accesses (Count)
system.l2.demandAccesses::total               7706007                       # number of demand (read+write) accesses (Count)
system.l2.overallAccesses::switch_cpus.inst           25                       # number of overall (read+write) accesses (Count)
system.l2.overallAccesses::switch_cpus.data      7705982                       # number of overall (read+write) accesses (Count)
system.l2.overallAccesses::total              7706007                       # number of overall (read+write) accesses (Count)
system.l2.demandMissRate::switch_cpus.inst            1                       # miss rate for demand accesses (Ratio)
system.l2.demandMissRate::switch_cpus.data     0.845296                       # miss rate for demand accesses (Ratio)
system.l2.demandMissRate::total              0.845297                       # miss rate for demand accesses (Ratio)
system.l2.overallMissRate::switch_cpus.inst            1                       # miss rate for overall accesses (Ratio)
system.l2.overallMissRate::switch_cpus.data     0.845296                       # miss rate for overall accesses (Ratio)
system.l2.overallMissRate::total             0.845297                       # miss rate for overall accesses (Ratio)
system.l2.demandAvgMissLatency::switch_cpus.inst       210600                       # average overall miss latency in ticks ((Tick/Count))
system.l2.demandAvgMissLatency::switch_cpus.data 168991.405450                       # average overall miss latency in ticks ((Tick/Count))
system.l2.demandAvgMissLatency::total    168991.565142                       # average overall miss latency in ticks ((Tick/Count))
system.l2.overallAvgMissLatency::switch_cpus.inst       210600                       # average overall miss latency ((Tick/Count))
system.l2.overallAvgMissLatency::switch_cpus.data 168991.405450                       # average overall miss latency ((Tick/Count))
system.l2.overallAvgMissLatency::total   168991.565142                       # average overall miss latency ((Tick/Count))
system.l2.blockedCycles::no_mshrs                   0                       # number of cycles access was blocked (Cycle)
system.l2.blockedCycles::no_targets                 0                       # number of cycles access was blocked (Cycle)
system.l2.blockedCauses::no_mshrs                   0                       # number of times access was blocked (Count)
system.l2.blockedCauses::no_targets                 0                       # number of times access was blocked (Count)
system.l2.avgBlocked::no_mshrs                    nan                       # average number of cycles each access was blocked ((Cycle/Count))
system.l2.avgBlocked::no_targets                  nan                       # average number of cycles each access was blocked ((Cycle/Count))
system.l2.writebacks::writebacks               411295                       # number of writebacks (Count)
system.l2.writebacks::total                    411295                       # number of writebacks (Count)
system.l2.demandMshrMisses::switch_cpus.inst           25                       # number of demand (read+write) MSHR misses (Count)
system.l2.demandMshrMisses::switch_cpus.data      6513837                       # number of demand (read+write) MSHR misses (Count)
system.l2.demandMshrMisses::total             6513862                       # number of demand (read+write) MSHR misses (Count)
system.l2.overallMshrMisses::switch_cpus.inst           25                       # number of overall MSHR misses (Count)
system.l2.overallMshrMisses::switch_cpus.data      6513837                       # number of overall MSHR misses (Count)
system.l2.overallMshrMisses::total            6513862                       # number of overall MSHR misses (Count)
system.l2.demandMshrMissLatency::switch_cpus.inst      5252500                       # number of demand (read+write) MSHR miss ticks (Tick)
system.l2.demandMshrMissLatency::switch_cpus.data 1097525551000                       # number of demand (read+write) MSHR miss ticks (Tick)
system.l2.demandMshrMissLatency::total   1097530803500                       # number of demand (read+write) MSHR miss ticks (Tick)
system.l2.overallMshrMissLatency::switch_cpus.inst      5252500                       # number of overall MSHR miss ticks (Tick)
system.l2.overallMshrMissLatency::switch_cpus.data 1097525551000                       # number of overall MSHR miss ticks (Tick)
system.l2.overallMshrMissLatency::total  1097530803500                       # number of overall MSHR miss ticks (Tick)
system.l2.demandMshrMissRate::switch_cpus.inst            1                       # mshr miss ratio for demand accesses (Ratio)
system.l2.demandMshrMissRate::switch_cpus.data     0.845296                       # mshr miss ratio for demand accesses (Ratio)
system.l2.demandMshrMissRate::total          0.845297                       # mshr miss ratio for demand accesses (Ratio)
system.l2.overallMshrMissRate::switch_cpus.inst            1                       # mshr miss ratio for overall accesses (Ratio)
system.l2.overallMshrMissRate::switch_cpus.data     0.845296                       # mshr miss ratio for overall accesses (Ratio)
system.l2.overallMshrMissRate::total         0.845297                       # mshr miss ratio for overall accesses (Ratio)
system.l2.demandAvgMshrMissLatency::switch_cpus.inst       210100                       # average overall mshr miss latency ((Tick/Count))
system.l2.demandAvgMshrMissLatency::switch_cpus.data 168491.405450                       # average overall mshr miss latency ((Tick/Count))
system.l2.demandAvgMshrMissLatency::total 168491.565142                       # average overall mshr miss latency ((Tick/Count))
system.l2.overallAvgMshrMissLatency::switch_cpus.inst       210100                       # average overall mshr miss latency ((Tick/Count))
system.l2.overallAvgMshrMissLatency::switch_cpus.data 168491.405450                       # average overall mshr miss latency ((Tick/Count))
system.l2.overallAvgMshrMissLatency::total 168491.565142                       # average overall mshr miss latency ((Tick/Count))
system.l2.replacements                        6512173                       # number of replacements (Count)
system.l2.CleanEvict.mshrMisses::writebacks           25                       # number of CleanEvict MSHR misses (Count)
system.l2.CleanEvict.mshrMisses::total             25                       # number of CleanEvict MSHR misses (Count)
system.l2.CleanEvict.mshrMissRate::writebacks          inf                       # mshr miss rate for CleanEvict accesses (Ratio)
system.l2.CleanEvict.mshrMissRate::total          inf                       # mshr miss rate for CleanEvict accesses (Ratio)
system.l2.ReadCleanReq.misses::switch_cpus.inst           25                       # number of ReadCleanReq misses (Count)
system.l2.ReadCleanReq.misses::total               25                       # number of ReadCleanReq misses (Count)
system.l2.ReadCleanReq.missLatency::switch_cpus.inst      5265000                       # number of ReadCleanReq miss ticks (Tick)
system.l2.ReadCleanReq.missLatency::total      5265000                       # number of ReadCleanReq miss ticks (Tick)
system.l2.ReadCleanReq.accesses::switch_cpus.inst           25                       # number of ReadCleanReq accesses(hits+misses) (Count)
system.l2.ReadCleanReq.accesses::total             25                       # number of ReadCleanReq accesses(hits+misses) (Count)
system.l2.ReadCleanReq.missRate::switch_cpus.inst            1                       # miss rate for ReadCleanReq accesses (Ratio)
system.l2.ReadCleanReq.missRate::total              1                       # miss rate for ReadCleanReq accesses (Ratio)
system.l2.ReadCleanReq.avgMissLatency::switch_cpus.inst       210600                       # average ReadCleanReq miss latency ((Tick/Count))
system.l2.ReadCleanReq.avgMissLatency::total       210600                       # average ReadCleanReq miss latency ((Tick/Count))
system.l2.ReadCleanReq.mshrMisses::switch_cpus.inst           25                       # number of ReadCleanReq MSHR misses (Count)
system.l2.ReadCleanReq.mshrMisses::total           25                       # number of ReadCleanReq MSHR misses (Count)
system.l2.ReadCleanReq.mshrMissLatency::switch_cpus.inst      5252500                       # number of ReadCleanReq MSHR miss ticks (Tick)
system.l2.ReadCleanReq.mshrMissLatency::total      5252500                       # number of ReadCleanReq MSHR miss ticks (Tick)
system.l2.ReadCleanReq.mshrMissRate::switch_cpus.inst            1                       # mshr miss rate for ReadCleanReq accesses (Ratio)
system.l2.ReadCleanReq.mshrMissRate::total            1                       # mshr miss rate for ReadCleanReq accesses (Ratio)
system.l2.ReadCleanReq.avgMshrMissLatency::switch_cpus.inst       210100                       # average ReadCleanReq mshr miss latency ((Tick/Count))
system.l2.ReadCleanReq.avgMshrMissLatency::total       210100                       # average ReadCleanReq mshr miss latency ((Tick/Count))
system.l2.ReadExReq.hits::switch_cpus.data        55882                       # number of ReadExReq hits (Count)
system.l2.ReadExReq.hits::total                 55882                       # number of ReadExReq hits (Count)
system.l2.ReadExReq.misses::switch_cpus.data       326667                       # number of ReadExReq misses (Count)
system.l2.ReadExReq.misses::total              326667                       # number of ReadExReq misses (Count)
system.l2.ReadExReq.missLatency::switch_cpus.data  35387516000                       # number of ReadExReq miss ticks (Tick)
system.l2.ReadExReq.missLatency::total    35387516000                       # number of ReadExReq miss ticks (Tick)
system.l2.ReadExReq.accesses::switch_cpus.data       382549                       # number of ReadExReq accesses(hits+misses) (Count)
system.l2.ReadExReq.accesses::total            382549                       # number of ReadExReq accesses(hits+misses) (Count)
system.l2.ReadExReq.missRate::switch_cpus.data     0.853922                       # miss rate for ReadExReq accesses (Ratio)
system.l2.ReadExReq.missRate::total          0.853922                       # miss rate for ReadExReq accesses (Ratio)
system.l2.ReadExReq.avgMissLatency::switch_cpus.data 108329.020072                       # average ReadExReq miss latency ((Tick/Count))
system.l2.ReadExReq.avgMissLatency::total 108329.020072                       # average ReadExReq miss latency ((Tick/Count))
system.l2.ReadExReq.mshrMisses::switch_cpus.data       326667                       # number of ReadExReq MSHR misses (Count)
system.l2.ReadExReq.mshrMisses::total          326667                       # number of ReadExReq MSHR misses (Count)
system.l2.ReadExReq.mshrMissLatency::switch_cpus.data  35224182500                       # number of ReadExReq MSHR miss ticks (Tick)
system.l2.ReadExReq.mshrMissLatency::total  35224182500                       # number of ReadExReq MSHR miss ticks (Tick)
system.l2.ReadExReq.mshrMissRate::switch_cpus.data     0.853922                       # mshr miss rate for ReadExReq accesses (Ratio)
system.l2.ReadExReq.mshrMissRate::total      0.853922                       # mshr miss rate for ReadExReq accesses (Ratio)
system.l2.ReadExReq.avgMshrMissLatency::switch_cpus.data 107829.020072                       # average ReadExReq mshr miss latency ((Tick/Count))
system.l2.ReadExReq.avgMshrMissLatency::total 107829.020072                       # average ReadExReq mshr miss latency ((Tick/Count))
system.l2.ReadSharedReq.hits::switch_cpus.data      1136263                       # number of ReadSharedReq hits (Count)
system.l2.ReadSharedReq.hits::total           1136263                       # number of ReadSharedReq hits (Count)
system.l2.ReadSharedReq.misses::switch_cpus.data      6187170                       # number of ReadSharedReq misses (Count)
system.l2.ReadSharedReq.misses::total         6187170                       # number of ReadSharedReq misses (Count)
system.l2.ReadSharedReq.missLatency::switch_cpus.data 1065394953500                       # number of ReadSharedReq miss ticks (Tick)
system.l2.ReadSharedReq.missLatency::total 1065394953500                       # number of ReadSharedReq miss ticks (Tick)
system.l2.ReadSharedReq.accesses::switch_cpus.data      7323433                       # number of ReadSharedReq accesses(hits+misses) (Count)
system.l2.ReadSharedReq.accesses::total       7323433                       # number of ReadSharedReq accesses(hits+misses) (Count)
system.l2.ReadSharedReq.missRate::switch_cpus.data     0.844846                       # miss rate for ReadSharedReq accesses (Ratio)
system.l2.ReadSharedReq.missRate::total      0.844846                       # miss rate for ReadSharedReq accesses (Ratio)
system.l2.ReadSharedReq.avgMissLatency::switch_cpus.data 172194.226682                       # average ReadSharedReq miss latency ((Tick/Count))
system.l2.ReadSharedReq.avgMissLatency::total 172194.226682                       # average ReadSharedReq miss latency ((Tick/Count))
system.l2.ReadSharedReq.mshrMisses::switch_cpus.data      6187170                       # number of ReadSharedReq MSHR misses (Count)
system.l2.ReadSharedReq.mshrMisses::total      6187170                       # number of ReadSharedReq MSHR misses (Count)
system.l2.ReadSharedReq.mshrMissLatency::switch_cpus.data 1062301368500                       # number of ReadSharedReq MSHR miss ticks (Tick)
system.l2.ReadSharedReq.mshrMissLatency::total 1062301368500                       # number of ReadSharedReq MSHR miss ticks (Tick)
system.l2.ReadSharedReq.mshrMissRate::switch_cpus.data     0.844846                       # mshr miss rate for ReadSharedReq accesses (Ratio)
system.l2.ReadSharedReq.mshrMissRate::total     0.844846                       # mshr miss rate for ReadSharedReq accesses (Ratio)
system.l2.ReadSharedReq.avgMshrMissLatency::switch_cpus.data 171694.226682                       # average ReadSharedReq mshr miss latency ((Tick/Count))
system.l2.ReadSharedReq.avgMshrMissLatency::total 171694.226682                       # average ReadSharedReq mshr miss latency ((Tick/Count))
system.l2.UpgradeReq.misses::switch_cpus.data        84573                       # number of UpgradeReq misses (Count)
system.l2.UpgradeReq.misses::total              84573                       # number of UpgradeReq misses (Count)
system.l2.UpgradeReq.accesses::switch_cpus.data        84573                       # number of UpgradeReq accesses(hits+misses) (Count)
system.l2.UpgradeReq.accesses::total            84573                       # number of UpgradeReq accesses(hits+misses) (Count)
system.l2.UpgradeReq.missRate::switch_cpus.data            1                       # miss rate for UpgradeReq accesses (Ratio)
system.l2.UpgradeReq.missRate::total                1                       # miss rate for UpgradeReq accesses (Ratio)
system.l2.UpgradeReq.mshrMisses::switch_cpus.data        84573                       # number of UpgradeReq MSHR misses (Count)
system.l2.UpgradeReq.mshrMisses::total          84573                       # number of UpgradeReq MSHR misses (Count)
system.l2.UpgradeReq.mshrMissLatency::switch_cpus.data   1015667000                       # number of UpgradeReq MSHR miss ticks (Tick)
system.l2.UpgradeReq.mshrMissLatency::total   1015667000                       # number of UpgradeReq MSHR miss ticks (Tick)
system.l2.UpgradeReq.mshrMissRate::switch_cpus.data            1                       # mshr miss rate for UpgradeReq accesses (Ratio)
system.l2.UpgradeReq.mshrMissRate::total            1                       # mshr miss rate for UpgradeReq accesses (Ratio)
system.l2.UpgradeReq.avgMshrMissLatency::switch_cpus.data 12009.352867                       # average UpgradeReq mshr miss latency ((Tick/Count))
system.l2.UpgradeReq.avgMshrMissLatency::total 12009.352867                       # average UpgradeReq mshr miss latency ((Tick/Count))
system.l2.WritebackClean.hits::writebacks      7050211                       # number of WritebackClean hits (Count)
system.l2.WritebackClean.hits::total          7050211                       # number of WritebackClean hits (Count)
system.l2.WritebackClean.accesses::writebacks      7050211                       # number of WritebackClean accesses(hits+misses) (Count)
system.l2.WritebackClean.accesses::total      7050211                       # number of WritebackClean accesses(hits+misses) (Count)
system.l2.WritebackDirty.hits::writebacks       655771                       # number of WritebackDirty hits (Count)
system.l2.WritebackDirty.hits::total           655771                       # number of WritebackDirty hits (Count)
system.l2.WritebackDirty.accesses::writebacks       655771                       # number of WritebackDirty accesses(hits+misses) (Count)
system.l2.WritebackDirty.accesses::total       655771                       # number of WritebackDirty accesses(hits+misses) (Count)
system.l2.power_state.pwrStateResidencyTicks::UNDEFINED 2319536130000                       # Cumulative time (in ticks) in various power states (Tick)
system.l2.tags.tagsInUse                    63.997595                       # Average ticks per tags in use ((Tick/Count))
system.l2.tags.totalRefs                      7706046                       # Total number of references to valid blocks. (Count)
system.l2.tags.sampledRefs                    7706046                       # Sample count of references to valid blocks. (Count)
system.l2.tags.avgRefs                              1                       # Average number of references to valid blocks. ((Count/Count))
system.l2.tags.warmupTick                           0                       # The tick when the warmup percentage was hit. (Tick)
system.l2.tags.occupancies::writebacks      63.997595                       # Average occupied blocks per tick, per requestor ((Count/Tick))
system.l2.tags.avgOccs::writebacks           0.999962                       # Average percentage of cache occupancy ((Ratio/Tick))
system.l2.tags.avgOccs::total                0.999962                       # Average percentage of cache occupancy ((Ratio/Tick))
system.l2.tags.occupanciesTaskId::1024             64                       # Occupied blocks per task id (Count)
system.l2.tags.ageTaskId_1024::0                   64                       # Occupied blocks per task id, per block age (Count)
system.l2.tags.ratioOccsTaskId::1024                1                       # Ratio of occupied blocks and all blocks, per task id (Ratio)
system.l2.tags.tagAccesses                    7705982                       # Number of tag accesses (Count)
system.l2.tags.dataAccesses                   7705982                       # Number of data accesses (Count)
system.l2.tags.hits                           1193809                       # The number of hits in each cache size. (Count)
system.l2.tags.misses                        14302778                       # The number of misses in each cache size. (Count)
system.l2.tags.accesses                      15496587                       # The number of accesses to the FA LRU cache. (Count)
system.l2.tags.power_state.pwrStateResidencyTicks::UNDEFINED 2319536130000                       # Cumulative time (in ticks) in various power states (Tick)
system.l3.demandHits::switch_cpus.data        1564148                       # number of demand (read+write) hits (Count)
system.l3.demandHits::total                   1564148                       # number of demand (read+write) hits (Count)
system.l3.overallHits::switch_cpus.data       1564148                       # number of overall hits (Count)
system.l3.overallHits::total                  1564148                       # number of overall hits (Count)
system.l3.demandMisses::switch_cpus.inst           25                       # number of demand (read+write) misses (Count)
system.l3.demandMisses::switch_cpus.data      4948025                       # number of demand (read+write) misses (Count)
system.l3.demandMisses::total                 4948050                       # number of demand (read+write) misses (Count)
system.l3.overallMisses::switch_cpus.inst           25                       # number of overall misses (Count)
system.l3.overallMisses::switch_cpus.data      4948025                       # number of overall misses (Count)
system.l3.overallMisses::total                4948050                       # number of overall misses (Count)
system.l3.demandMissLatency::switch_cpus.inst      5215000                       # number of demand (read+write) miss ticks (Tick)
system.l3.demandMissLatency::switch_cpus.data 1071287573500                       # number of demand (read+write) miss ticks (Tick)
system.l3.demandMissLatency::total       1071292788500                       # number of demand (read+write) miss ticks (Tick)
system.l3.overallMissLatency::switch_cpus.inst      5215000                       # number of overall miss ticks (Tick)
system.l3.overallMissLatency::switch_cpus.data 1071287573500                       # number of overall miss ticks (Tick)
system.l3.overallMissLatency::total      1071292788500                       # number of overall miss ticks (Tick)
system.l3.demandAccesses::switch_cpus.inst           25                       # number of demand (read+write) accesses (Count)
system.l3.demandAccesses::switch_cpus.data      6512173                       # number of demand (read+write) accesses (Count)
system.l3.demandAccesses::total               6512198                       # number of demand (read+write) accesses (Count)
system.l3.overallAccesses::switch_cpus.inst           25                       # number of overall (read+write) accesses (Count)
system.l3.overallAccesses::switch_cpus.data      6512173                       # number of overall (read+write) accesses (Count)
system.l3.overallAccesses::total              6512198                       # number of overall (read+write) accesses (Count)
system.l3.demandMissRate::switch_cpus.inst            1                       # miss rate for demand accesses (Ratio)
system.l3.demandMissRate::switch_cpus.data     0.759812                       # miss rate for demand accesses (Ratio)
system.l3.demandMissRate::total              0.759813                       # miss rate for demand accesses (Ratio)
system.l3.overallMissRate::switch_cpus.inst            1                       # miss rate for overall accesses (Ratio)
system.l3.overallMissRate::switch_cpus.data     0.759812                       # miss rate for overall accesses (Ratio)
system.l3.overallMissRate::total             0.759813                       # miss rate for overall accesses (Ratio)
system.l3.demandAvgMissLatency::switch_cpus.inst       208600                       # average overall miss latency in ticks ((Tick/Count))
system.l3.demandAvgMissLatency::switch_cpus.data 216508.116572                       # average overall miss latency in ticks ((Tick/Count))
system.l3.demandAvgMissLatency::total    216508.076616                       # average overall miss latency in ticks ((Tick/Count))
system.l3.overallAvgMissLatency::switch_cpus.inst       208600                       # average overall miss latency ((Tick/Count))
system.l3.overallAvgMissLatency::switch_cpus.data 216508.116572                       # average overall miss latency ((Tick/Count))
system.l3.overallAvgMissLatency::total   216508.076616                       # average overall miss latency ((Tick/Count))
system.l3.blockedCycles::no_mshrs                   0                       # number of cycles access was blocked (Cycle)
system.l3.blockedCycles::no_targets                 0                       # number of cycles access was blocked (Cycle)
system.l3.blockedCauses::no_mshrs                   0                       # number of times access was blocked (Count)
system.l3.blockedCauses::no_targets                 0                       # number of times access was blocked (Count)
system.l3.avgBlocked::no_mshrs                    nan                       # average number of cycles each access was blocked ((Cycle/Count))
system.l3.avgBlocked::no_targets                  nan                       # average number of cycles each access was blocked ((Cycle/Count))
system.l3.writebacks::writebacks               240303                       # number of writebacks (Count)
system.l3.writebacks::total                    240303                       # number of writebacks (Count)
system.l3.demandMshrMisses::switch_cpus.inst           25                       # number of demand (read+write) MSHR misses (Count)
system.l3.demandMshrMisses::switch_cpus.data      4948025                       # number of demand (read+write) MSHR misses (Count)
system.l3.demandMshrMisses::total             4948050                       # number of demand (read+write) MSHR misses (Count)
system.l3.overallMshrMisses::switch_cpus.inst           25                       # number of overall MSHR misses (Count)
system.l3.overallMshrMisses::switch_cpus.data      4948025                       # number of overall MSHR misses (Count)
system.l3.overallMshrMisses::total            4948050                       # number of overall MSHR misses (Count)
system.l3.demandMshrMissLatency::switch_cpus.inst      4965000                       # number of demand (read+write) MSHR miss ticks (Tick)
system.l3.demandMshrMissLatency::switch_cpus.data 1021807323500                       # number of demand (read+write) MSHR miss ticks (Tick)
system.l3.demandMshrMissLatency::total   1021812288500                       # number of demand (read+write) MSHR miss ticks (Tick)
system.l3.overallMshrMissLatency::switch_cpus.inst      4965000                       # number of overall MSHR miss ticks (Tick)
system.l3.overallMshrMissLatency::switch_cpus.data 1021807323500                       # number of overall MSHR miss ticks (Tick)
system.l3.overallMshrMissLatency::total  1021812288500                       # number of overall MSHR miss ticks (Tick)
system.l3.demandMshrMissRate::switch_cpus.inst            1                       # mshr miss ratio for demand accesses (Ratio)
system.l3.demandMshrMissRate::switch_cpus.data     0.759812                       # mshr miss ratio for demand accesses (Ratio)
system.l3.demandMshrMissRate::total          0.759813                       # mshr miss ratio for demand accesses (Ratio)
system.l3.overallMshrMissRate::switch_cpus.inst            1                       # mshr miss ratio for overall accesses (Ratio)
system.l3.overallMshrMissRate::switch_cpus.data     0.759812                       # mshr miss ratio for overall accesses (Ratio)
system.l3.overallMshrMissRate::total         0.759813                       # mshr miss ratio for overall accesses (Ratio)
system.l3.demandAvgMshrMissLatency::switch_cpus.inst       198600                       # average overall mshr miss latency ((Tick/Count))
system.l3.demandAvgMshrMissLatency::switch_cpus.data 206508.116572                       # average overall mshr miss latency ((Tick/Count))
system.l3.demandAvgMshrMissLatency::total 206508.076616                       # average overall mshr miss latency ((Tick/Count))
system.l3.overallAvgMshrMissLatency::switch_cpus.inst       198600                       # average overall mshr miss latency ((Tick/Count))
system.l3.overallAvgMshrMissLatency::switch_cpus.data 206508.116572                       # average overall mshr miss latency ((Tick/Count))
system.l3.overallAvgMshrMissLatency::total 206508.076616                       # average overall mshr miss latency ((Tick/Count))
system.l3.replacements                        4949525                       # number of replacements (Count)
system.l3.CleanEvict.mshrMisses::writebacks        10944                       # number of CleanEvict MSHR misses (Count)
system.l3.CleanEvict.mshrMisses::total          10944                       # number of CleanEvict MSHR misses (Count)
system.l3.CleanEvict.mshrMissRate::writebacks          inf                       # mshr miss rate for CleanEvict accesses (Ratio)
system.l3.CleanEvict.mshrMissRate::total          inf                       # mshr miss rate for CleanEvict accesses (Ratio)
system.l3.ReadCleanReq.hits::switch_cpus.data      1394142                       # number of ReadCleanReq hits (Count)
system.l3.ReadCleanReq.hits::total            1394142                       # number of ReadCleanReq hits (Count)
system.l3.ReadCleanReq.misses::switch_cpus.inst           25                       # number of ReadCleanReq misses (Count)
system.l3.ReadCleanReq.misses::switch_cpus.data      4793028                       # number of ReadCleanReq misses (Count)
system.l3.ReadCleanReq.misses::total          4793053                       # number of ReadCleanReq misses (Count)
system.l3.ReadCleanReq.missLatency::switch_cpus.inst      5215000                       # number of ReadCleanReq miss ticks (Tick)
system.l3.ReadCleanReq.missLatency::switch_cpus.data 1038366803500                       # number of ReadCleanReq miss ticks (Tick)
system.l3.ReadCleanReq.missLatency::total 1038372018500                       # number of ReadCleanReq miss ticks (Tick)
system.l3.ReadCleanReq.accesses::switch_cpus.inst           25                       # number of ReadCleanReq accesses(hits+misses) (Count)
system.l3.ReadCleanReq.accesses::switch_cpus.data      6187170                       # number of ReadCleanReq accesses(hits+misses) (Count)
system.l3.ReadCleanReq.accesses::total        6187195                       # number of ReadCleanReq accesses(hits+misses) (Count)
system.l3.ReadCleanReq.missRate::switch_cpus.inst            1                       # miss rate for ReadCleanReq accesses (Ratio)
system.l3.ReadCleanReq.missRate::switch_cpus.data     0.774672                       # miss rate for ReadCleanReq accesses (Ratio)
system.l3.ReadCleanReq.missRate::total       0.774673                       # miss rate for ReadCleanReq accesses (Ratio)
system.l3.ReadCleanReq.avgMissLatency::switch_cpus.inst       208600                       # average ReadCleanReq miss latency ((Tick/Count))
system.l3.ReadCleanReq.avgMissLatency::switch_cpus.data 216641.088577                       # average ReadCleanReq miss latency ((Tick/Count))
system.l3.ReadCleanReq.avgMissLatency::total 216641.046636                       # average ReadCleanReq miss latency ((Tick/Count))
system.l3.ReadCleanReq.mshrMisses::switch_cpus.inst           25                       # number of ReadCleanReq MSHR misses (Count)
system.l3.ReadCleanReq.mshrMisses::switch_cpus.data      4793028                       # number of ReadCleanReq MSHR misses (Count)
system.l3.ReadCleanReq.mshrMisses::total      4793053                       # number of ReadCleanReq MSHR misses (Count)
system.l3.ReadCleanReq.mshrMissLatency::switch_cpus.inst      4965000                       # number of ReadCleanReq MSHR miss ticks (Tick)
system.l3.ReadCleanReq.mshrMissLatency::switch_cpus.data 990436523500                       # number of ReadCleanReq MSHR miss ticks (Tick)
system.l3.ReadCleanReq.mshrMissLatency::total 990441488500                       # number of ReadCleanReq MSHR miss ticks (Tick)
system.l3.ReadCleanReq.mshrMissRate::switch_cpus.inst            1                       # mshr miss rate for ReadCleanReq accesses (Ratio)
system.l3.ReadCleanReq.mshrMissRate::switch_cpus.data     0.774672                       # mshr miss rate for ReadCleanReq accesses (Ratio)
[...]
system.switch_cpus.committedInstType_0::SimdAdd            0      0.00%     74.51% # Class of committed instruction (Count)
system.switch_cpus.committedInstType_0::SimdAddAcc            0      0.00%     74.51% # Class of committed instruction (Count)
system.switch_cpus.committedInstType_0::SimdAlu            0      0.00%     74.51% # Class of committed instruction (Count)
system.switch_cpus.committedInstType_0::SimdCmp            0      0.00%     74.51% # Class of committed instruction (Count)
system.switch_cpus.committedInstType_0::SimdCvt            0      0.00%     74.51% # Class of committed instruction (Count)
system.switch_cpus.committedInstType_0::SimdMisc            0      0.00%     74.51% # Class of committed instruction (Count)
system.switch_cpus.committedInstType_0::SimdMult            0      0.00%     74.51% # Class of committed instruction (Count)
system.switch_cpus.committedInstType_0::SimdMultAcc            0      0.00%     74.51% # Class of committed instruction (Count)
system.switch_cpus.committedInstType_0::SimdShift            0      0.00%     74.51% # Class of committed instruction (Count)
system.switch_cpus.committedInstType_0::SimdShiftAcc            0      0.00%     74.51% # Class of committed instruction (Count)
system.switch_cpus.committedInstType_0::SimdDiv            0      0.00%     74.51% # Class of committed instruction (Count)
system.switch_cpus.committedInstType_0::SimdSqrt            0      0.00%     74.51% # Class of committed instruction (Count)
system.switch_cpus.committedInstType_0::SimdFloatAdd            0      0.00%     74.51% # Class of committed instruction (Count)
system.switch_cpus.committedInstType_0::SimdFloatAlu            0      0.00%     74.51% # Class of committed instruction (Count)
system.switch_cpus.committedInstType_0::SimdFloatCmp            0      0.00%     74.51% # Class of committed instruction (Count)
system.switch_cpus.committedInstType_0::SimdFloatCvt            0      0.00%     74.51% # Class of committed instruction (Count)
system.switch_cpus.committedInstType_0::SimdFloatDiv            0      0.00%     74.51% # Class of committed instruction (Count)
system.switch_cpus.committedInstType_0::SimdFloatMisc            0      0.00%     74.51% # Class of committed instruction (Count)
system.switch_cpus.committedInstType_0::SimdFloatMult            0      0.00%     74.51% # Class of committed instruction (Count)
system.switch_cpus.committedInstType_0::SimdFloatMultAcc            0      0.00%     74.51% # Class of committed instruction (Count)
system.switch_cpus.committedInstType_0::SimdFloatSqrt            0      0.00%     74.51% # Class of committed instruction (Count)
system.switch_cpus.committedInstType_0::SimdReduceAdd            0      0.00%     74.51% # Class of committed instruction (Count)
system.switch_cpus.committedInstType_0::SimdReduceAlu            0      0.00%     74.51% # Class of committed instruction (Count)
system.switch_cpus.committedInstType_0::SimdReduceCmp            0      0.00%     74.51% # Class of committed instruction (Count)
system.switch_cpus.committedInstType_0::SimdFloatReduceAdd            0      0.00%     74.51% # Class of committed instruction (Count)
system.switch_cpus.committedInstType_0::SimdFloatReduceCmp            0      0.00%     74.51% # Class of committed instruction (Count)
system.switch_cpus.committedInstType_0::SimdAes            0      0.00%     74.51% # Class of committed instruction (Count)
system.switch_cpus.committedInstType_0::SimdAesMix            0      0.00%     74.51% # Class of committed instruction (Count)
system.switch_cpus.committedInstType_0::SimdSha1Hash            0      0.00%     74.51% # Class of committed instruction (Count)
system.switch_cpus.committedInstType_0::SimdSha1Hash2            0      0.00%     74.51% # Class of committed instruction (Count)
system.switch_cpus.committedInstType_0::SimdSha256Hash            0      0.00%     74.51% # Class of committed instruction (Count)
system.switch_cpus.committedInstType_0::SimdSha256Hash2            0      0.00%     74.51% # Class of committed instruction (Count)
system.switch_cpus.committedInstType_0::SimdShaSigma2            0      0.00%     74.51% # Class of committed instruction (Count)
system.switch_cpus.committedInstType_0::SimdShaSigma3            0      0.00%     74.51% # Class of committed instruction (Count)
system.switch_cpus.committedInstType_0::SimdPredAlu            0      0.00%     74.51% # Class of committed instruction (Count)
system.switch_cpus.committedInstType_0::MemRead     35129797     20.20%     94.71% # Class of committed instruction (Count)
system.switch_cpus.committedInstType_0::MemWrite      9197647      5.29%    100.00% # Class of committed instruction (Count)
system.switch_cpus.committedInstType_0::FloatMemRead         1161      0.00%    100.00% # Class of committed instruction (Count)
system.switch_cpus.committedInstType_0::FloatMemWrite          774      0.00%    100.00% # Class of committed instruction (Count)
system.switch_cpus.committedInstType_0::IprAccess            0      0.00%    100.00% # Class of committed instruction (Count)
system.switch_cpus.committedInstType_0::InstPrefetch            0      0.00%    100.00% # Class of committed instruction (Count)
system.switch_cpus.committedInstType_0::total    173938542                       # Class of committed instruction (Count)
system.switch_cpus.branchPred.lookups               0                       # Number of BP lookups (Count)
system.switch_cpus.branchPred.condPredicted            0                       # Number of conditional branches predicted (Count)
system.switch_cpus.branchPred.condIncorrect            0                       # Number of conditional branches incorrect (Count)
system.switch_cpus.branchPred.BTBLookups            0                       # Number of BTB lookups (Count)
system.switch_cpus.branchPred.BTBHits               0                       # Number of BTB hits (Count)
system.switch_cpus.branchPred.BTBHitRatio          nan                       # BTB Hit Ratio (Ratio)
system.switch_cpus.branchPred.RASUsed               0                       # Number of times the RAS was used to get a target. (Count)
system.switch_cpus.branchPred.RASIncorrect            0                       # Number of incorrect RAS predictions. (Count)
system.switch_cpus.branchPred.indirectLookups            0                       # Number of indirect predictor lookups. (Count)
system.switch_cpus.branchPred.indirectHits            0                       # Number of indirect target hits. (Count)
system.switch_cpus.branchPred.indirectMisses            0                       # Number of indirect misses. (Count)
system.switch_cpus.branchPred.indirectMispredicted            0                       # Number of mispredicted indirect branches. (Count)
system.switch_cpus.fetch2.intInstructions            0                       # Number of integer instructions successfully decoded (Count)
system.switch_cpus.fetch2.fpInstructions            0                       # Number of floating point instructions successfully decoded (Count)
system.switch_cpus.fetch2.vecInstructions            0                       # Number of SIMD instructions successfully decoded (Count)
system.switch_cpus.fetch2.loadInstructions            0                       # Number of memory load instructions successfully decoded (Count)
system.switch_cpus.fetch2.storeInstructions            0                       # Number of memory store instructions successfully decoded (Count)
system.switch_cpus.fetch2.amoInstructions            0                       # Number of memory atomic instructions successfully decoded (Count)
system.switch_cpus.mmu.dtb.rdAccesses        45040265                       # TLB accesses on read requests (Count)
system.switch_cpus.mmu.dtb.wrAccesses         9418249                       # TLB accesses on write requests (Count)
system.switch_cpus.mmu.dtb.rdMisses           2441995                       # TLB misses on read requests (Count)
system.switch_cpus.mmu.dtb.wrMisses             46008                       # TLB misses on write requests (Count)
system.switch_cpus.mmu.dtb.walker.power_state.pwrStateResidencyTicks::UNDEFINED 2319536130000                       # Cumulative time (in ticks) in various power states (Tick)
system.switch_cpus.mmu.itb.rdAccesses               0                       # TLB accesses on read requests (Count)
system.switch_cpus.mmu.itb.wrAccesses        40828588                       # TLB accesses on write requests (Count)
system.switch_cpus.mmu.itb.rdMisses                 0                       # TLB misses on read requests (Count)
system.switch_cpus.mmu.itb.wrMisses                 4                       # TLB misses on write requests (Count)
system.switch_cpus.mmu.itb.walker.power_state.pwrStateResidencyTicks::UNDEFINED 2319536130000                       # Cumulative time (in ticks) in various power states (Tick)
system.switch_cpus.power_state.pwrStateResidencyTicks::OFF 2319536130000                       # Cumulative time (in ticks) in various power states (Tick)
system.switch_cpus.thread_0.numInsts        100000000                       # Number of Instructions committed (Count)
system.switch_cpus.thread_0.numOps          173938542                       # Number of Ops committed (Count)
system.switch_cpus.thread_0.numMemRefs              0                       # Number of Memory References (Count)
system.tol2bus.transDist::ReadResp            7323458                       # Transaction distribution (Count)
system.tol2bus.transDist::WritebackDirty      1067310                       # Transaction distribution (Count)
system.tol2bus.transDist::WritebackClean      7050211                       # Transaction distribution (Count)
system.tol2bus.transDist::CleanEvict          6113078                       # Transaction distribution (Count)
system.tol2bus.transDist::UpgradeReq            84573                       # Transaction distribution (Count)
system.tol2bus.transDist::UpgradeResp           84573                       # Transaction distribution (Count)
system.tol2bus.transDist::ReadExReq            382549                       # Transaction distribution (Count)
system.tol2bus.transDist::ReadExResp           382549                       # Transaction distribution (Count)
system.tol2bus.transDist::ReadCleanReq             25                       # Transaction distribution (Count)
system.tol2bus.transDist::ReadSharedReq       7323433                       # Transaction distribution (Count)
system.tol2bus.pktCount_system.cpu.icache.mem_side_port::system.l2.cpu_side_port           75                       # Packet count per connected requestor and responder (Count)
system.tol2bus.pktCount_system.cpu.dcache.mem_side_port::system.l2.cpu_side_port     23287092                       # Packet count per connected requestor and responder (Count)
system.tol2bus.pktCount::total               23287167                       # Packet count per connected requestor and responder (Count)
system.tol2bus.pktSize_system.cpu.icache.mem_side_port::system.l2.cpu_side_port         1600                       # Cumulative packet size per connected requestor and responder (Byte)
system.tol2bus.pktSize_system.cpu.dcache.mem_side_port::system.l2.cpu_side_port    986365696                       # Cumulative packet size per connected requestor and responder (Byte)
system.tol2bus.pktSize::total               986367296                       # Cumulative packet size per connected requestor and responder (Byte)
system.tol2bus.snoops                         6524592                       # Total snoops (Count)
system.tol2bus.snoopTraffic                  26338496                       # Total snoop traffic (Byte)
system.tol2bus.snoopFanout::samples          14315172                       # Request fanout histogram (Count)
system.tol2bus.snoopFanout::mean             0.000254                       # Request fanout histogram (Count)
system.tol2bus.snoopFanout::stdev            0.015948                       # Request fanout histogram (Count)
system.tol2bus.snoopFanout::underflows              0      0.00%      0.00% # Request fanout histogram (Count)
system.tol2bus.snoopFanout::0                14311530     99.97%     99.97% # Request fanout histogram (Count)
system.tol2bus.snoopFanout::1                    3642      0.03%    100.00% # Request fanout histogram (Count)
system.tol2bus.snoopFanout::2                       0      0.00%    100.00% # Request fanout histogram (Count)
system.tol2bus.snoopFanout::3                       0      0.00%    100.00% # Request fanout histogram (Count)
system.tol2bus.snoopFanout::4                       0      0.00%    100.00% # Request fanout histogram (Count)
system.tol2bus.snoopFanout::overflows               0      0.00%    100.00% # Request fanout histogram (Count)
system.tol2bus.snoopFanout::min_value               0                       # Request fanout histogram (Count)
system.tol2bus.snoopFanout::max_value               1                       # Request fanout histogram (Count)
system.tol2bus.snoopFanout::total            14315172                       # Request fanout histogram (Count)
system.tol2bus.power_state.pwrStateResidencyTicks::UNDEFINED 2319536130000                       # Cumulative time (in ticks) in various power states (Tick)
system.tol2bus.reqLayer0.occupancy        15454275500                       # Layer occupancy (ticks) (Tick)
system.tol2bus.reqLayer0.utilization              0.0                       # Layer utilization (Ratio)
system.tol2bus.respLayer0.occupancy             37500                       # Layer occupancy (ticks) (Tick)
system.tol2bus.respLayer0.utilization             0.0                       # Layer utilization (Ratio)
system.tol2bus.respLayer1.occupancy       11601259500                       # Layer occupancy (ticks) (Tick)
system.tol2bus.respLayer1.utilization             0.0                       # Layer utilization (Ratio)
system.tol2bus.snoop_filter.totRequests      15496587                       # Total number of requests made to the snoop filter. (Count)
system.tol2bus.snoop_filter.hitSingleRequests      7790580                       # Number of requests hitting in the snoop filter with a single holder of the requested data. (Count)
system.tol2bus.snoop_filter.hitMultiRequests            0                       # Number of requests hitting in the snoop filter with multiple (>1) holders of the requested data. (Count)
system.tol2bus.snoop_filter.totSnoops            3642                       # Total number of snoops made to the snoop filter. (Count)
system.tol2bus.snoop_filter.hitSingleSnoops         3642                       # Number of snoops hitting in the snoop filter with a single holder of the requested data. (Count)
system.tol2bus.snoop_filter.hitMultiSnoops            0                       # Number of snoops hitting in the snoop filter with multiple (>1) holders of the requested data. (Count)
system.tol3bus.transDist::ReadResp            6187195                       # Transaction distribution (Count)
system.tol3bus.transDist::WritebackDirty       651598                       # Transaction distribution (Count)
system.tol3bus.transDist::CleanEvict         10810125                       # Transaction distribution (Count)
system.tol3bus.transDist::UpgradeReq            86237                       # Transaction distribution (Count)
system.tol3bus.transDist::UpgradeResp           86237                       # Transaction distribution (Count)
system.tol3bus.transDist::ReadExReq            325003                       # Transaction distribution (Count)
system.tol3bus.transDist::ReadExResp           325003                       # Transaction distribution (Count)
system.tol3bus.transDist::ReadCleanReq        6187195                       # Transaction distribution (Count)
system.tol3bus.pktCount_system.l2.mem_side_port::system.l3.cpu_side_port     19709068                       # Packet count per connected requestor and responder (Count)
system.tol3bus.pktSize_system.l2.mem_side_port::system.l3.cpu_side_port    443103552                       # Cumulative packet size per connected requestor and responder (Byte)
system.tol3bus.snoops                         4949525                       # Total snoops (Count)
system.tol3bus.snoopTraffic                  15379392                       # Total snoop traffic (Byte)
system.tol3bus.snoopFanout::samples          11547960                       # Request fanout histogram (Count)
system.tol3bus.snoopFanout::mean             0.001075                       # Request fanout histogram (Count)
system.tol3bus.snoopFanout::stdev            0.032776                       # Request fanout histogram (Count)
system.tol3bus.snoopFanout::underflows              0      0.00%      0.00% # Request fanout histogram (Count)
system.tol3bus.snoopFanout::0                11535541     99.89%     99.89% # Request fanout histogram (Count)
system.tol3bus.snoopFanout::1                   12419      0.11%    100.00% # Request fanout histogram (Count)
system.tol3bus.snoopFanout::overflows               0      0.00%    100.00% # Request fanout histogram (Count)
system.tol3bus.snoopFanout::min_value               0                       # Request fanout histogram (Count)
system.tol3bus.snoopFanout::max_value               1                       # Request fanout histogram (Count)
system.tol3bus.snoopFanout::total            11547960                       # Request fanout histogram (Count)
system.tol3bus.power_state.pwrStateResidencyTicks::UNDEFINED 2319536130000                       # Cumulative time (in ticks) in various power states (Tick)
system.tol3bus.reqLayer0.occupancy         6966611500                       # Layer occupancy (ticks) (Tick)
system.tol3bus.reqLayer0.utilization              0.0                       # Layer utilization (Ratio)
system.tol3bus.respLayer0.occupancy        9811415500                       # Layer occupancy (ticks) (Tick)
system.tol3bus.respLayer0.utilization             0.0                       # Layer utilization (Ratio)
system.tol3bus.snoop_filter.totRequests      13110633                       # Total number of requests made to the snoop filter. (Count)
system.tol3bus.snoop_filter.hitSingleRequests      6598435                       # Number of requests hitting in the snoop filter with a single holder of the requested data. (Count)
system.tol3bus.snoop_filter.hitMultiRequests            0                       # Number of requests hitting in the snoop filter with multiple (>1) holders of the requested data. (Count)
system.tol3bus.snoop_filter.totSnoops           12419                       # Total number of snoops made to the snoop filter. (Count)
system.tol3bus.snoop_filter.hitSingleSnoops        12419                       # Number of snoops hitting in the snoop filter with a single holder of the requested data. (Count)
system.tol3bus.snoop_filter.hitMultiSnoops            0                       # Number of snoops hitting in the snoop filter with multiple (>1) holders of the requested data. (Count)
system.voltage_domain.voltage                       1                       # Voltage in Volts (Volt)
system.workload.inst.arm                            0                       # number of arm instructions executed (Count)
system.workload.inst.quiesce                        0                       # number of quiesce instructions executed (Count)
system.switch_cpus.idleCycles              2204315522                       # Total number of cycles that the object has spent stopped (Unspecified)
system.switch_cpus.tickCycles               283212871                       # Number of cycles that the object actually ticked (Unspecified)

---------- End Simulation Statistics   ----------
