
---------- Begin Simulation Statistics ----------
simSeconds                                   0.121125                       # Number of seconds simulated (Second)
simTicks                                 121124638000                       # Number of ticks simulated (Tick)
finalTick                                1270759196000                       # Number of ticks from beginning of simulation (restored from checkpoints and never reset) (Tick)
simFreq                                  1000000000000                       # The number of ticks per simulated second ((Tick/Second))
hostSeconds                                    458.66                       # Real time elapsed on the host (Second)
hostTickRate                                264081833                       # The number of ticks simulated per host second (ticks/s) ((Tick/Second))
hostMemory                                    8857208                       # Number of bytes of host memory used (Byte)
simInsts                                   1100000002                       # Number of instructions simulated (Count)
simOps                                     2144421860                       # Number of ops (including micro ops) simulated (Count)
hostInstRate                                  2398272                       # Simulator instruction rate (inst/s) ((Count/Second))
hostOpRate                                    4675366                       # Simulator op (including micro ops) rate (op/s) ((Count/Second))
system.clk_domain.clock                          1000                       # Clock period in ticks (Tick)
system.cpu.numCycles                                0                       # Number of cpu cycles simulated (Cycle)
system.cpu.numWorkItemsStarted                      0                       # Number of work items this cpu started (Count)
system.cpu.numWorkItemsCompleted                    0                       # Number of work items this cpu completed (Count)
system.cpu.dcache.demandHits::switch_cpus.data     40924280                       # number of demand (read+write) hits (Count)
system.cpu.dcache.demandHits::total          40924280                       # number of demand (read+write) hits (Count)
system.cpu.dcache.overallHits::switch_cpus.data     40924280                       # number of overall hits (Count)
system.cpu.dcache.overallHits::total         40924280                       # number of overall hits (Count)
system.cpu.dcache.demandMisses::switch_cpus.data         9659                       # number of demand (read+write) misses (Count)
system.cpu.dcache.demandMisses::total            9659                       # number of demand (read+write) misses (Count)
system.cpu.dcache.overallMisses::switch_cpus.data         9659                       # number of overall misses (Count)
system.cpu.dcache.overallMisses::total           9659                       # number of overall misses (Count)
system.cpu.dcache.demandMissLatency::switch_cpus.data   1998724000                       # number of demand (read+write) miss ticks (Tick)
system.cpu.dcache.demandMissLatency::total   1998724000                       # number of demand (read+write) miss ticks (Tick)
system.cpu.dcache.overallMissLatency::switch_cpus.data   1998724000                       # number of overall miss ticks (Tick)
system.cpu.dcache.overallMissLatency::total   1998724000                       # number of overall miss ticks (Tick)
system.cpu.dcache.demandAccesses::switch_cpus.data     40933939                       # number of demand (read+write) accesses (Count)
system.cpu.dcache.demandAccesses::total      40933939                       # number of demand (read+write) accesses (Count)
system.cpu.dcache.overallAccesses::switch_cpus.data     40933939                       # number of overall (read+write) accesses (Count)
system.cpu.dcache.overallAccesses::total     40933939                       # number of overall (read+write) accesses (Count)
system.cpu.dcache.demandMissRate::switch_cpus.data     0.000236                       # miss rate for demand accesses (Ratio)
system.cpu.dcache.demandMissRate::total      0.000236                       # miss rate for demand accesses (Ratio)
system.cpu.dcache.overallMissRate::switch_cpus.data     0.000236                       # miss rate for overall accesses (Ratio)
system.cpu.dcache.overallMissRate::total     0.000236                       # miss rate for overall accesses (Ratio)
system.cpu.dcache.demandAvgMissLatency::switch_cpus.data 206928.667564                       # average overall miss latency in ticks ((Tick/Count))
system.cpu.dcache.demandAvgMissLatency::total 206928.667564                       # average overall miss latency in ticks ((Tick/Count))
system.cpu.dcache.overallAvgMissLatency::switch_cpus.data 206928.667564                       # average overall miss latency ((Tick/Count))
system.cpu.dcache.overallAvgMissLatency::total 206928.667564                       # average overall miss latency ((Tick/Count))
system.cpu.dcache.blockedCycles::no_mshrs            0                       # number of cycles access was blocked (Cycle)
system.cpu.dcache.blockedCycles::no_targets            0                       # number of cycles access was blocked (Cycle)
system.cpu.dcache.blockedCauses::no_mshrs            0                       # number of times access was blocked (Count)
system.cpu.dcache.blockedCauses::no_targets            0                       # number of times access was blocked (Count)
system.cpu.dcache.avgBlocked::no_mshrs            nan                       # average number of cycles each access was blocked ((Cycle/Count))
system.cpu.dcache.avgBlocked::no_targets          nan                       # average number of cycles each access was blocked ((Cycle/Count))
system.cpu.dcache.writebacks::writebacks         9656                       # number of writebacks (Count)
system.cpu.dcache.writebacks::total              9656                       # number of writebacks (Count)
system.cpu.dcache.demandMshrHits::switch_cpus.data            3                       # number of demand (read+write) MSHR hits (Count)
system.cpu.dcache.demandMshrHits::total             3                       # number of demand (read+write) MSHR hits (Count)
system.cpu.dcache.overallMshrHits::switch_cpus.data            3                       # number of overall MSHR hits (Count)
system.cpu.dcache.overallMshrHits::total            3                       # number of overall MSHR hits (Count)
system.cpu.dcache.demandMshrMisses::switch_cpus.data         9656                       # number of demand (read+write) MSHR misses (Count)
system.cpu.dcache.demandMshrMisses::total         9656                       # number of demand (read+write) MSHR misses (Count)
system.cpu.dcache.overallMshrMisses::switch_cpus.data         9656                       # number of overall MSHR misses (Count)
system.cpu.dcache.overallMshrMisses::total         9656                       # number of overall MSHR misses (Count)
system.cpu.dcache.demandMshrMissLatency::switch_cpus.data   1988444000                       # number of demand (read+write) MSHR miss ticks (Tick)
system.cpu.dcache.demandMshrMissLatency::total   1988444000                       # number of demand (read+write) MSHR miss ticks (Tick)
system.cpu.dcache.overallMshrMissLatency::switch_cpus.data   1988444000                       # number of overall MSHR miss ticks (Tick)
system.cpu.dcache.overallMshrMissLatency::total   1988444000                       # number of overall MSHR miss ticks (Tick)
system.cpu.dcache.demandMshrMissRate::switch_cpus.data     0.000236                       # mshr miss ratio for demand accesses (Ratio)
system.cpu.dcache.demandMshrMissRate::total     0.000236                       # mshr miss ratio for demand accesses (Ratio)
system.cpu.dcache.overallMshrMissRate::switch_cpus.data     0.000236                       # mshr miss ratio for overall accesses (Ratio)
system.cpu.dcache.overallMshrMissRate::total     0.000236                       # mshr miss ratio for overall accesses (Ratio)
system.cpu.dcache.demandAvgMshrMissLatency::switch_cpus.data 205928.334714                       # average overall mshr miss latency ((Tick/Count))
system.cpu.dcache.demandAvgMshrMissLatency::total 205928.334714                       # average overall mshr miss latency ((Tick/Count))
system.cpu.dcache.overallAvgMshrMissLatency::switch_cpus.data 205928.334714                       # average overall mshr miss latency ((Tick/Count))
system.cpu.dcache.overallAvgMshrMissLatency::total 205928.334714                       # average overall mshr miss latency ((Tick/Count))
system.cpu.dcache.replacements                   9656                       # number of replacements (Count)
system.cpu.dcache.ReadReq.hits::switch_cpus.data     28744875                       # number of ReadReq hits (Count)
system.cpu.dcache.ReadReq.hits::total        28744875                       # number of ReadReq hits (Count)
system.cpu.dcache.ReadReq.misses::switch_cpus.data          605                       # number of ReadReq misses (Count)
system.cpu.dcache.ReadReq.misses::total           605                       # number of ReadReq misses (Count)
system.cpu.dcache.ReadReq.missLatency::switch_cpus.data      4658500                       # number of ReadReq miss ticks (Tick)
system.cpu.dcache.ReadReq.missLatency::total      4658500                       # number of ReadReq miss ticks (Tick)
system.cpu.dcache.ReadReq.accesses::switch_cpus.data     28745480                       # number of ReadReq accesses(hits+misses) (Count)
system.cpu.dcache.ReadReq.accesses::total     28745480                       # number of ReadReq accesses(hits+misses) (Count)
system.cpu.dcache.ReadReq.missRate::switch_cpus.data     0.000021                       # miss rate for ReadReq accesses (Ratio)
system.cpu.dcache.ReadReq.missRate::total     0.000021                       # miss rate for ReadReq accesses (Ratio)
system.cpu.dcache.ReadReq.avgMissLatency::switch_cpus.data         7700                       # average ReadReq miss latency ((Tick/Count))
system.cpu.dcache.ReadReq.avgMissLatency::total         7700                       # average ReadReq miss latency ((Tick/Count))
system.cpu.dcache.ReadReq.mshrHits::switch_cpus.data            2                       # number of ReadReq MSHR hits (Count)
system.cpu.dcache.ReadReq.mshrHits::total            2                       # number of ReadReq MSHR hits (Count)
system.cpu.dcache.ReadReq.mshrMisses::switch_cpus.data          603                       # number of ReadReq MSHR misses (Count)
system.cpu.dcache.ReadReq.mshrMisses::total          603                       # number of ReadReq MSHR misses (Count)
system.cpu.dcache.ReadReq.mshrMissLatency::switch_cpus.data      3613000                       # number of ReadReq MSHR miss ticks (Tick)
system.cpu.dcache.ReadReq.mshrMissLatency::total      3613000                       # number of ReadReq MSHR miss ticks (Tick)
system.cpu.dcache.ReadReq.mshrMissRate::switch_cpus.data     0.000021                       # mshr miss rate for ReadReq accesses (Ratio)
system.cpu.dcache.ReadReq.mshrMissRate::total     0.000021                       # mshr miss rate for ReadReq accesses (Ratio)
system.cpu.dcache.ReadReq.avgMshrMissLatency::switch_cpus.data  5991.708126                       # average ReadReq mshr miss latency ((Tick/Count))
system.cpu.dcache.ReadReq.avgMshrMissLatency::total  5991.708126                       # average ReadReq mshr miss latency ((Tick/Count))
system.cpu.dcache.WriteReq.hits::switch_cpus.data     12179405                       # number of WriteReq hits (Count)
system.cpu.dcache.WriteReq.hits::total       12179405                       # number of WriteReq hits (Count)
system.cpu.dcache.WriteReq.misses::switch_cpus.data         9054                       # number of WriteReq misses (Count)
system.cpu.dcache.WriteReq.misses::total         9054                       # number of WriteReq misses (Count)
system.cpu.dcache.WriteReq.missLatency::switch_cpus.data   1994065500                       # number of WriteReq miss ticks (Tick)
system.cpu.dcache.WriteReq.missLatency::total   1994065500                       # number of WriteReq miss ticks (Tick)
system.cpu.dcache.WriteReq.accesses::switch_cpus.data     12188459                       # number of WriteReq accesses(hits+misses) (Count)
system.cpu.dcache.WriteReq.accesses::total     12188459                       # number of WriteReq accesses(hits+misses) (Count)
system.cpu.dcache.WriteReq.missRate::switch_cpus.data     0.000743                       # miss rate for WriteReq accesses (Ratio)
system.cpu.dcache.WriteReq.missRate::total     0.000743                       # miss rate for WriteReq accesses (Ratio)
system.cpu.dcache.WriteReq.avgMissLatency::switch_cpus.data 220241.385023                       # average WriteReq miss latency ((Tick/Count))
system.cpu.dcache.WriteReq.avgMissLatency::total 220241.385023                       # average WriteReq miss latency ((Tick/Count))
system.cpu.dcache.WriteReq.mshrHits::switch_cpus.data            1                       # number of WriteReq MSHR hits (Count)
system.cpu.dcache.WriteReq.mshrHits::total            1                       # number of WriteReq MSHR hits (Count)
system.cpu.dcache.WriteReq.mshrMisses::switch_cpus.data         9053                       # number of WriteReq MSHR misses (Count)
system.cpu.dcache.WriteReq.mshrMisses::total         9053                       # number of WriteReq MSHR misses (Count)
system.cpu.dcache.WriteReq.mshrMissLatency::switch_cpus.data   1984831000                       # number of WriteReq MSHR miss ticks (Tick)
system.cpu.dcache.WriteReq.mshrMissLatency::total   1984831000                       # number of WriteReq MSHR miss ticks (Tick)
system.cpu.dcache.WriteReq.mshrMissRate::switch_cpus.data     0.000743                       # mshr miss rate for WriteReq accesses (Ratio)
system.cpu.dcache.WriteReq.mshrMissRate::total     0.000743                       # mshr miss rate for WriteReq accesses (Ratio)
system.cpu.dcache.WriteReq.avgMshrMissLatency::switch_cpus.data 219245.664421                       # average WriteReq mshr miss latency ((Tick/Count))
system.cpu.dcache.WriteReq.avgMshrMissLatency::total 219245.664421                       # average WriteReq mshr miss latency ((Tick/Count))
system.cpu.dcache.power_state.pwrStateResidencyTicks::UNDEFINED 1270759196000                       # Cumulative time (in ticks) in various power states (Tick)
system.cpu.dcache.tags.tagsInUse                  256                       # Average ticks per tags in use ((Tick/Count))
system.cpu.dcache.tags.totalRefs            145942383                       # Total number of references to valid blocks. (Count)
system.cpu.dcache.tags.sampledRefs               9912                       # Sample count of references to valid blocks. (Count)
system.cpu.dcache.tags.avgRefs           14723.807809                       # Average number of references to valid blocks. ((Count/Count))
system.cpu.dcache.tags.warmupTick                   0                       # The tick when the warmup percentage was hit. (Tick)
system.cpu.dcache.tags.occupancies::cpu.data   125.625513                       # Average occupied blocks per tick, per requestor ((Count/Tick))
system.cpu.dcache.tags.occupancies::switch_cpus.data   130.374487                       # Average occupied blocks per tick, per requestor ((Count/Tick))
system.cpu.dcache.tags.avgOccs::cpu.data     0.490725                       # Average percentage of cache occupancy ((Ratio/Tick))
system.cpu.dcache.tags.avgOccs::switch_cpus.data     0.509275                       # Average percentage of cache occupancy ((Ratio/Tick))
system.cpu.dcache.tags.avgOccs::total               1                       # Average percentage of cache occupancy ((Ratio/Tick))
system.cpu.dcache.tags.occupanciesTaskId::1024          256                       # Occupied blocks per task id (Count)
system.cpu.dcache.tags.ageTaskId_1024::1            9                       # Occupied blocks per task id, per block age (Count)
system.cpu.dcache.tags.ageTaskId_1024::2           67                       # Occupied blocks per task id, per block age (Count)
system.cpu.dcache.tags.ageTaskId_1024::3           33                       # Occupied blocks per task id, per block age (Count)
system.cpu.dcache.tags.ageTaskId_1024::4          147                       # Occupied blocks per task id, per block age (Count)
system.cpu.dcache.tags.ratioOccsTaskId::1024            1                       # Ratio of occupied blocks and all blocks, per task id (Ratio)
system.cpu.dcache.tags.tagAccesses         2619781752                       # Number of tag accesses (Count)
system.cpu.dcache.tags.dataAccesses        2619781752                       # Number of data accesses (Count)
system.cpu.dcache.tags.power_state.pwrStateResidencyTicks::UNDEFINED 1270759196000                       # Cumulative time (in ticks) in various power states (Tick)
system.cpu.dtb_walker_cache.blockedCycles::no_mshrs            0                       # number of cycles access was blocked (Cycle)
system.cpu.dtb_walker_cache.blockedCycles::no_targets            0                       # number of cycles access was blocked (Cycle)
system.cpu.dtb_walker_cache.blockedCauses::no_mshrs            0                       # number of times access was blocked (Count)
system.cpu.dtb_walker_cache.blockedCauses::no_targets            0                       # number of times access was blocked (Count)
system.cpu.dtb_walker_cache.avgBlocked::no_mshrs          nan                       # average number of cycles each access was blocked ((Cycle/Count))
system.cpu.dtb_walker_cache.avgBlocked::no_targets          nan                       # average number of cycles each access was blocked ((Cycle/Count))
system.cpu.dtb_walker_cache.replacements            0                       # number of replacements (Count)
system.cpu.dtb_walker_cache.power_state.pwrStateResidencyTicks::UNDEFINED 1270759196000                       # Cumulative time (in ticks) in various power states (Tick)
system.cpu.dtb_walker_cache.tags.tagsInUse            0                       # Average ticks per tags in use ((Tick/Count))
system.cpu.dtb_walker_cache.tags.totalRefs            0                       # Total number of references to valid blocks. (Count)
system.cpu.dtb_walker_cache.tags.sampledRefs            0                       # Sample count of references to valid blocks. (Count)
system.cpu.dtb_walker_cache.tags.avgRefs          nan                       # Average number of references to valid blocks. ((Count/Count))
system.cpu.dtb_walker_cache.tags.warmupTick            0                       # The tick when the warmup percentage was hit. (Tick)
system.cpu.dtb_walker_cache.tags.tagAccesses            0                       # Number of tag accesses (Count)
system.cpu.dtb_walker_cache.tags.dataAccesses            0                       # Number of data accesses (Count)
system.cpu.dtb_walker_cache.tags.power_state.pwrStateResidencyTicks::UNDEFINED 1270759196000                       # Cumulative time (in ticks) in various power states (Tick)
system.cpu.exec_context.thread_0.numInsts            0                       # Number of instructions committed (Count)
system.cpu.exec_context.thread_0.numOps             0                       # Number of ops (including micro ops) committed (Count)
system.cpu.exec_context.thread_0.numIntAluAccesses            0                       # Number of integer alu accesses (Count)
system.cpu.exec_context.thread_0.numFpAluAccesses            0                       # Number of float alu accesses (Count)
system.cpu.exec_context.thread_0.numVecAluAccesses            0                       # Number of vector alu accesses (Count)
system.cpu.exec_context.thread_0.numCallsReturns            0                       # Number of times a function call or return occured (Count)
system.cpu.exec_context.thread_0.numCondCtrlInsts            0                       # Number of instructions that are conditional controls (Count)
system.cpu.exec_context.thread_0.numIntInsts            0                       # Number of integer instructions (Count)
system.cpu.exec_context.thread_0.numFpInsts            0                       # Number of float instructions (Count)
system.cpu.exec_context.thread_0.numVecInsts            0                       # Number of vector instructions (Count)
system.cpu.exec_context.thread_0.numIntRegReads            0                       # Number of times the integer registers were read (Count)
system.cpu.exec_context.thread_0.numIntRegWrites            0                       # Number of times the integer registers were written (Count)
system.cpu.exec_context.thread_0.numFpRegReads            0                       # Number of times the floating registers were read (Count)
system.cpu.exec_context.thread_0.numFpRegWrites            0                       # Number of times the floating registers were written (Count)
system.cpu.exec_context.thread_0.numVecRegReads            0                       # Number of times the vector registers were read (Count)
system.cpu.exec_context.thread_0.numVecRegWrites            0                       # Number of times the vector registers were written (Count)
system.cpu.exec_context.thread_0.numVecPredRegReads            0                       # Number of times the predicate registers were read (Count)
system.cpu.exec_context.thread_0.numVecPredRegWrites            0                       # Number of times the predicate registers were written (Count)
system.cpu.exec_context.thread_0.numMiscRegReads            0                       # Number of times the Misc registers were read (Count)
system.cpu.exec_context.thread_0.numMiscRegWrites            0                       # Number of times the Misc registers were written (Count)
system.cpu.exec_context.thread_0.numMemRefs            0                       # Number of memory refs (Count)
system.cpu.exec_context.thread_0.numLoadInsts            0                       # Number of load instructions (Count)
system.cpu.exec_context.thread_0.numStoreInsts            0                       # Number of store instructions (Count)
system.cpu.exec_context.thread_0.numIdleCycles            0                       # Number of idle cycles (Cycle)
system.cpu.exec_context.thread_0.numBusyCycles            0                       # Number of busy cycles (Cycle)
system.cpu.exec_context.thread_0.notIdleFraction            1                       # Percentage of non-idle cycles (Ratio)
system.cpu.exec_context.thread_0.idleFraction            0                       # Percentage of idle cycles (Ratio)
system.cpu.exec_context.thread_0.statExecutedInstType::No_OpClass            0                       # Class of executed instruction. (Count)
system.cpu.exec_context.thread_0.statExecutedInstType::IntAlu            0                       # Class of executed instruction. (Count)
system.cpu.exec_context.thread_0.statExecutedInstType::IntMult            0                       # Class of executed instruction. (Count)
system.cpu.exec_context.thread_0.statExecutedInstType::IntDiv            0                       # Class of executed instruction. (Count)
system.cpu.exec_context.thread_0.statExecutedInstType::FloatAdd            0                       # Class of executed instruction. (Count)
system.cpu.exec_context.thread_0.statExecutedInstType::FloatCmp            0                       # Class of executed instruction. (Count)
system.cpu.exec_context.thread_0.statExecutedInstType::FloatCvt            0                       # Class of executed instruction. (Count)
system.cpu.exec_context.thread_0.statExecutedInstType::FloatMult            0                       # Class of executed instruction. (Count)
system.cpu.exec_context.thread_0.statExecutedInstType::FloatMultAcc            0                       # Class of executed instruction. (Count)
system.cpu.exec_context.thread_0.statExecutedInstType::FloatDiv            0                       # Class of executed instruction. (Count)
system.cpu.exec_context.thread_0.statExecutedInstType::FloatMisc            0                       # Class of executed instruction. (Count)
system.cpu.exec_context.thread_0.statExecutedInstType::FloatSqrt            0                       # Class of executed instruction. (Count)
system.cpu.exec_context.thread_0.statExecutedInstType::SimdAdd            0                       # Class of executed instruction. (Count)
system.cpu.exec_context.thread_0.statExecutedInstType::SimdAddAcc            0                       # Class of executed instruction. (Count)
system.cpu.exec_context.thread_0.statExecutedInstType::SimdAlu            0                       # Class of executed instruction. (Count)
system.cpu.exec_context.thread_0.statExecutedInstType::SimdCmp            0                       # Class of executed instruction. (Count)
system.cpu.exec_context.thread_0.statExecutedInstType::SimdCvt            0                       # Class of executed instruction. (Count)
system.cpu.exec_context.thread_0.statExecutedInstType::SimdMisc            0                       # Class of executed instruction. (Count)
system.cpu.exec_context.thread_0.statExecutedInstType::SimdMult            0                       # Class of executed instruction. (Count)
system.cpu.exec_context.thread_0.statExecutedInstType::SimdMultAcc            0                       # Class of executed instruction. (Count)
system.cpu.exec_context.thread_0.statExecutedInstType::SimdShift            0                       # Class of executed instruction. (Count)
system.cpu.exec_context.thread_0.statExecutedInstType::SimdShiftAcc            0                       # Class of executed instruction. (Count)
system.cpu.exec_context.thread_0.statExecutedInstType::SimdDiv            0                       # Class of executed instruction. (Count)
system.cpu.exec_context.thread_0.statExecutedInstType::SimdSqrt            0                       # Class of executed instruction. (Count)
system.cpu.exec_context.thread_0.statExecutedInstType::SimdFloatAdd            0                       # Class of executed instruction. (Count)
system.cpu.exec_context.thread_0.statExecutedInstType::SimdFloatAlu            0                       # Class of executed instruction. (Count)
system.cpu.exec_context.thread_0.statExecutedInstType::SimdFloatCmp            0                       # Class of executed instruction. (Count)
system.cpu.exec_context.thread_0.statExecutedInstType::SimdFloatCvt            0                       # Class of executed instruction. (Count)
system.cpu.exec_context.thread_0.statExecutedInstType::SimdFloatDiv            0                       # Class of executed instruction. (Count)
system.cpu.exec_context.thread_0.statExecutedInstType::SimdFloatMisc            0                       # Class of executed instruction. (Count)
system.cpu.exec_context.thread_0.statExecutedInstType::SimdFloatMult            0                       # Class of executed instruction. (Count)
system.cpu.exec_context.thread_0.statExecutedInstType::SimdFloatMultAcc            0                       # Class of executed instruction. (Count)
system.cpu.exec_context.thread_0.statExecutedInstType::SimdFloatSqrt            0                       # Class of executed instruction. (Count)
system.cpu.exec_context.thread_0.statExecutedInstType::SimdReduceAdd            0                       # Class of executed instruction. (Count)
system.cpu.exec_context.thread_0.statExecutedInstType::SimdReduceAlu            0                       # Class of executed instruction. (Count)
system.cpu.exec_context.thread_0.statExecutedInstType::SimdReduceCmp            0                       # Class of executed instruction. (Count)
system.cpu.exec_context.thread_0.statExecutedInstType::SimdFloatReduceAdd            0                       # Class of executed instruction. (Count)
system.cpu.exec_context.thread_0.statExecutedInstType::SimdFloatReduceCmp            0                       # Class of executed instruction. (Count)
system.cpu.exec_context.thread_0.statExecutedInstType::SimdAes            0                       # Class of executed instruction. (Count)
system.cpu.exec_context.thread_0.statExecutedInstType::SimdAesMix            0                       # Class of executed instruction. (Count)
system.cpu.exec_context.thread_0.statExecutedInstType::SimdSha1Hash            0                       # Class of executed instruction. (Count)
system.cpu.exec_context.thread_0.statExecutedInstType::SimdSha1Hash2            0                       # Class of executed instruction. (Count)
system.cpu.exec_context.thread_0.statExecutedInstType::SimdSha256Hash            0                       # Class of executed instruction. (Count)
system.cpu.exec_context.thread_0.statExecutedInstType::SimdSha256Hash2            0                       # Class of executed instruction. (Count)
system.cpu.exec_context.thread_0.statExecutedInstType::SimdShaSigma2            0                       # Class of executed instruction. (Count)
system.cpu.exec_context.thread_0.statExecutedInstType::SimdShaSigma3            0                       # Class of executed instruction. (Count)
system.cpu.exec_context.thread_0.statExecutedInstType::SimdPredAlu            0                       # Class of executed instruction. (Count)
system.cpu.exec_context.thread_0.statExecutedInstType::MemRead            0                       # Class of executed instruction. (Count)
system.cpu.exec_context.thread_0.statExecutedInstType::MemWrite            0                       # Class of executed instruction. (Count)
system.cpu.exec_context.thread_0.statExecutedInstType::FloatMemRead            0                       # Class of executed instruction. (Count)
system.cpu.exec_context.thread_0.statExecutedInstType::FloatMemWrite            0                       # Class of executed instruction. (Count)
system.cpu.exec_context.thread_0.statExecutedInstType::IprAccess            0                       # Class of executed instruction. (Count)
system.cpu.exec_context.thread_0.statExecutedInstType::InstPrefetch            0                       # Class of executed instruction. (Count)
system.cpu.exec_context.thread_0.statExecutedInstType::total            0                       # Class of executed instruction. (Count)
system.cpu.icache.demandHits::switch_cpus.inst     35476118                       # number of demand (read+write) hits (Count)
system.cpu.icache.demandHits::total          35476118                       # number of demand (read+write) hits (Count)
system.cpu.icache.overallHits::switch_cpus.inst     35476118                       # number of overall hits (Count)
system.cpu.icache.overallHits::total         35476118                       # number of overall hits (Count)
system.cpu.icache.demandMisses::switch_cpus.inst           82                       # number of demand (read+write) misses (Count)
system.cpu.icache.demandMisses::total              82                       # number of demand (read+write) misses (Count)
system.cpu.icache.overallMisses::switch_cpus.inst           82                       # number of overall misses (Count)
system.cpu.icache.overallMisses::total             82                       # number of overall misses (Count)
system.cpu.icache.demandMissLatency::switch_cpus.inst     17719000                       # number of demand (read+write) miss ticks (Tick)
system.cpu.icache.demandMissLatency::total     17719000                       # number of demand (read+write) miss ticks (Tick)
system.cpu.icache.overallMissLatency::switch_cpus.inst     17719000                       # number of overall miss ticks (Tick)
system.cpu.icache.overallMissLatency::total     17719000                       # number of overall miss ticks (Tick)
system.cpu.icache.demandAccesses::switch_cpus.inst     35476200                       # number of demand (read+write) accesses (Count)
system.cpu.icache.demandAccesses::total      35476200                       # number of demand (read+write) accesses (Count)
system.cpu.icache.overallAccesses::switch_cpus.inst     35476200                       # number of overall (read+write) accesses (Count)
system.cpu.icache.overallAccesses::total     35476200                       # number of overall (read+write) accesses (Count)
system.cpu.icache.demandMissRate::switch_cpus.inst     0.000002                       # miss rate for demand accesses (Ratio)
system.cpu.icache.demandMissRate::total      0.000002                       # miss rate for demand accesses (Ratio)
system.cpu.icache.overallMissRate::switch_cpus.inst     0.000002                       # miss rate for overall accesses (Ratio)
system.cpu.icache.overallMissRate::total     0.000002                       # miss rate for overall accesses (Ratio)
system.cpu.icache.demandAvgMissLatency::switch_cpus.inst 216085.365854                       # average overall miss latency in ticks ((Tick/Count))
system.cpu.icache.demandAvgMissLatency::total 216085.365854                       # average overall miss latency in ticks ((Tick/Count))
system.cpu.icache.overallAvgMissLatency::switch_cpus.inst 216085.365854                       # average overall miss latency ((Tick/Count))
system.cpu.icache.overallAvgMissLatency::total 216085.365854                       # average overall miss latency ((Tick/Count))
system.cpu.icache.blockedCycles::no_mshrs            0                       # number of cycles access was blocked (Cycle)
system.cpu.icache.blockedCycles::no_targets            0                       # number of cycles access was blocked (Cycle)
system.cpu.icache.blockedCauses::no_mshrs            0                       # number of times access was blocked (Count)
system.cpu.icache.blockedCauses::no_targets            0                       # number of times access was blocked (Count)
system.cpu.icache.avgBlocked::no_mshrs            nan                       # average number of cycles each access was blocked ((Cycle/Count))
system.cpu.icache.avgBlocked::no_targets          nan                       # average number of cycles each access was blocked ((Cycle/Count))
system.cpu.icache.demandMshrMisses::switch_cpus.inst           82                       # number of demand (read+write) MSHR misses (Count)
system.cpu.icache.demandMshrMisses::total           82                       # number of demand (read+write) MSHR misses (Count)
system.cpu.icache.overallMshrMisses::switch_cpus.inst           82                       # number of overall MSHR misses (Count)
system.cpu.icache.overallMshrMisses::total           82                       # number of overall MSHR misses (Count)
system.cpu.icache.demandMshrMissLatency::switch_cpus.inst     17637000                       # number of demand (read+write) MSHR miss ticks (Tick)
system.cpu.icache.demandMshrMissLatency::total     17637000                       # number of demand (read+write) MSHR miss ticks (Tick)
system.cpu.icache.overallMshrMissLatency::switch_cpus.inst     17637000                       # number of overall MSHR miss ticks (Tick)
system.cpu.icache.overallMshrMissLatency::total     17637000                       # number of overall MSHR miss ticks (Tick)
system.cpu.icache.demandMshrMissRate::switch_cpus.inst     0.000002                       # mshr miss ratio for demand accesses (Ratio)
system.cpu.icache.demandMshrMissRate::total     0.000002                       # mshr miss ratio for demand accesses (Ratio)
system.cpu.icache.overallMshrMissRate::switch_cpus.inst     0.000002                       # mshr miss ratio for overall accesses (Ratio)
system.cpu.icache.overallMshrMissRate::total     0.000002                       # mshr miss ratio for overall accesses (Ratio)
system.cpu.icache.demandAvgMshrMissLatency::switch_cpus.inst 215085.365854                       # average overall mshr miss latency ((Tick/Count))
system.cpu.icache.demandAvgMshrMissLatency::total 215085.365854                       # average overall mshr miss latency ((Tick/Count))
system.cpu.icache.overallAvgMshrMissLatency::switch_cpus.inst 215085.365854                       # average overall mshr miss latency ((Tick/Count))
system.cpu.icache.overallAvgMshrMissLatency::total 215085.365854                       # average overall mshr miss latency ((Tick/Count))
system.cpu.icache.replacements                     82                       # number of replacements (Count)
system.cpu.icache.ReadReq.hits::switch_cpus.inst     35476118                       # number of ReadReq hits (Count)
system.cpu.icache.ReadReq.hits::total        35476118                       # number of ReadReq hits (Count)
system.cpu.icache.ReadReq.misses::switch_cpus.inst           82                       # number of ReadReq misses (Count)
system.cpu.icache.ReadReq.misses::total            82                       # number of ReadReq misses (Count)
system.cpu.icache.ReadReq.missLatency::switch_cpus.inst     17719000                       # number of ReadReq miss ticks (Tick)
system.cpu.icache.ReadReq.missLatency::total     17719000                       # number of ReadReq miss ticks (Tick)
system.cpu.icache.ReadReq.accesses::switch_cpus.inst     35476200                       # number of ReadReq accesses(hits+misses) (Count)
system.cpu.icache.ReadReq.accesses::total     35476200                       # number of ReadReq accesses(hits+misses) (Count)
system.cpu.icache.ReadReq.missRate::switch_cpus.inst     0.000002                       # miss rate for ReadReq accesses (Ratio)
system.cpu.icache.ReadReq.missRate::total     0.000002                       # miss rate for ReadReq accesses (Ratio)
system.cpu.icache.ReadReq.avgMissLatency::switch_cpus.inst 216085.365854                       # average ReadReq miss latency ((Tick/Count))
system.cpu.icache.ReadReq.avgMissLatency::total 216085.365854                       # average ReadReq miss latency ((Tick/Count))
system.cpu.icache.ReadReq.mshrMisses::switch_cpus.inst           82                       # number of ReadReq MSHR misses (Count)
system.cpu.icache.ReadReq.mshrMisses::total           82                       # number of ReadReq MSHR misses (Count)
system.cpu.icache.ReadReq.mshrMissLatency::switch_cpus.inst     17637000                       # number of ReadReq MSHR miss ticks (Tick)
system.cpu.icache.ReadReq.mshrMissLatency::total     17637000                       # number of ReadReq MSHR miss ticks (Tick)
system.cpu.icache.ReadReq.mshrMissRate::switch_cpus.inst     0.000002                       # mshr miss rate for ReadReq accesses (Ratio)
system.cpu.icache.ReadReq.mshrMissRate::total     0.000002                       # mshr miss rate for ReadReq accesses (Ratio)
system.cpu.icache.ReadReq.avgMshrMissLatency::switch_cpus.inst 215085.365854                       # average ReadReq mshr miss latency ((Tick/Count))
system.cpu.icache.ReadReq.avgMshrMissLatency::total 215085.365854                       # average ReadReq mshr miss latency ((Tick/Count))
system.cpu.icache.power_state.pwrStateResidencyTicks::UNDEFINED 1270759196000                       # Cumulative time (in ticks) in various power states (Tick)
system.cpu.icache.tags.tagsInUse                  256                       # Average ticks per tags in use ((Tick/Count))
system.cpu.icache.tags.totalRefs            605432528                       # Total number of references to valid blocks. (Count)
system.cpu.icache.tags.sampledRefs                338                       # Sample count of references to valid blocks. (Count)
system.cpu.icache.tags.avgRefs           1791220.497041                       # Average number of references to valid blocks. ((Count/Count))
system.cpu.icache.tags.warmupTick                   0                       # The tick when the warmup percentage was hit. (Tick)
system.cpu.icache.tags.occupancies::cpu.inst   178.293519                       # Average occupied blocks per tick, per requestor ((Count/Tick))
system.cpu.icache.tags.occupancies::switch_cpus.inst    77.706481                       # Average occupied blocks per tick, per requestor ((Count/Tick))
system.cpu.icache.tags.avgOccs::cpu.inst     0.696459                       # Average percentage of cache occupancy ((Ratio/Tick))
system.cpu.icache.tags.avgOccs::switch_cpus.inst     0.303541                       # Average percentage of cache occupancy ((Ratio/Tick))
system.cpu.icache.tags.avgOccs::total               1                       # Average percentage of cache occupancy ((Ratio/Tick))
system.cpu.icache.tags.occupanciesTaskId::1024          256                       # Occupied blocks per task id (Count)
system.cpu.icache.tags.ageTaskId_1024::4          256                       # Occupied blocks per task id, per block age (Count)
system.cpu.icache.tags.ratioOccsTaskId::1024            1                       # Ratio of occupied blocks and all blocks, per task id (Ratio)
system.cpu.icache.tags.tagAccesses         2270476882                       # Number of tag accesses (Count)
system.cpu.icache.tags.dataAccesses        2270476882                       # Number of data accesses (Count)
system.cpu.icache.tags.power_state.pwrStateResidencyTicks::UNDEFINED 1270759196000                       # Cumulative time (in ticks) in various power states (Tick)
system.cpu.interrupts.clk_domain.clock           8000                       # Clock period in ticks (Tick)
system.cpu.itb_walker_cache.blockedCycles::no_mshrs            0                       # number of cycles access was blocked (Cycle)
system.cpu.itb_walker_cache.blockedCycles::no_targets            0                       # number of cycles access was blocked (Cycle)
system.cpu.itb_walker_cache.blockedCauses::no_mshrs            0                       # number of times access was blocked (Count)
system.cpu.itb_walker_cache.blockedCauses::no_targets            0                       # number of times access was blocked (Count)
system.cpu.itb_walker_cache.avgBlocked::no_mshrs          nan                       # average number of cycles each access was blocked ((Cycle/Count))
system.cpu.itb_walker_cache.avgBlocked::no_targets          nan                       # average number of cycles each access was blocked ((Cycle/Count))
system.cpu.itb_walker_cache.replacements            0                       # number of replacements (Count)
system.cpu.itb_walker_cache.power_state.pwrStateResidencyTicks::UNDEFINED 1270759196000                       # Cumulative time (in ticks) in various power states (Tick)
system.cpu.itb_walker_cache.tags.tagsInUse            0                       # Average ticks per tags in use ((Tick/Count))
system.cpu.itb_walker_cache.tags.totalRefs            0                       # Total number of references to valid blocks. (Count)
system.cpu.itb_walker_cache.tags.sampledRefs            0                       # Sample count of references to valid blocks. (Count)
system.cpu.itb_walker_cache.tags.avgRefs          nan                       # Average number of references to valid blocks. ((Count/Count))
system.cpu.itb_walker_cache.tags.warmupTick            0                       # The tick when the warmup percentage was hit. (Tick)
system.cpu.itb_walker_cache.tags.tagAccesses            0                       # Number of tag accesses (Count)
system.cpu.itb_walker_cache.tags.dataAccesses            0                       # Number of data accesses (Count)
system.cpu.itb_walker_cache.tags.power_state.pwrStateResidencyTicks::UNDEFINED 1270759196000                       # Cumulative time (in ticks) in various power states (Tick)
system.cpu.mmu.dtb.rdAccesses                       0                       # TLB accesses on read requests (Count)
system.cpu.mmu.dtb.wrAccesses                       0                       # TLB accesses on write requests (Count)
system.cpu.mmu.dtb.rdMisses                         0                       # TLB misses on read requests (Count)
system.cpu.mmu.dtb.wrMisses                         0                       # TLB misses on write requests (Count)
system.cpu.mmu.dtb.walker.power_state.pwrStateResidencyTicks::UNDEFINED 1270759196000                       # Cumulative time (in ticks) in various power states (Tick)
system.cpu.mmu.itb.rdAccesses                       0                       # TLB accesses on read requests (Count)
system.cpu.mmu.itb.wrAccesses                       0                       # TLB accesses on write requests (Count)
system.cpu.mmu.itb.rdMisses                         0                       # TLB misses on read requests (Count)
system.cpu.mmu.itb.wrMisses                         0                       # TLB misses on write requests (Count)
system.cpu.mmu.itb.walker.power_state.pwrStateResidencyTicks::UNDEFINED 1270759196000                       # Cumulative time (in ticks) in various power states (Tick)
system.cpu.power_state.pwrStateResidencyTicks::OFF 121124638000                       # Cumulative time (in ticks) in various power states (Tick)
system.cpu.thread_0.numInsts                        0                       # Number of Instructions committed (Count)
system.cpu.thread_0.numOps                          0                       # Number of Ops committed (Count)
system.cpu.thread_0.numMemRefs                      0                       # Number of Memory References (Count)
system.cpu.workload.numSyscalls                   143                       # Number of system calls (Count)
system.cpu_clk_domain.clock                       500                       # Clock period in ticks (Tick)
system.cpu_voltage_domain.voltage                   1                       # Voltage in Volts (Volt)
system.l2.demandHits::switch_cpus.data            594                       # number of demand (read+write) hits (Count)
system.l2.demandHits::total                       594                       # number of demand (read+write) hits (Count)
system.l2.overallHits::switch_cpus.data           594                       # number of overall hits (Count)
system.l2.overallHits::total                      594                       # number of overall hits (Count)
system.l2.demandMisses::switch_cpus.inst           82                       # number of demand (read+write) misses (Count)
system.l2.demandMisses::switch_cpus.data         9062                       # number of demand (read+write) misses (Count)
system.l2.demandMisses::total                    9144                       # number of demand (read+write) misses (Count)
system.l2.overallMisses::switch_cpus.inst           82                       # number of overall misses (Count)
system.l2.overallMisses::switch_cpus.data         9062                       # number of overall misses (Count)
system.l2.overallMisses::total                   9144                       # number of overall misses (Count)
system.l2.demandMissLatency::switch_cpus.inst     17514000                       # number of demand (read+write) miss ticks (Tick)
system.l2.demandMissLatency::switch_cpus.data   1973365500                       # number of demand (read+write) miss ticks (Tick)
system.l2.demandMissLatency::total         1990879500                       # number of demand (read+write) miss ticks (Tick)
system.l2.overallMissLatency::switch_cpus.inst     17514000                       # number of overall miss ticks (Tick)
system.l2.overallMissLatency::switch_cpus.data   1973365500                       # number of overall miss ticks (Tick)
system.l2.overallMissLatency::total        1990879500                       # number of overall miss ticks (Tick)
system.l2.demandAccesses::switch_cpus.inst           82                       # number of demand (read+write) accesses (Count)
system.l2.demandAccesses::switch_cpus.data         9656                       # number of demand (read+write) accesses (Count)
system.l2.demandAccesses::total                  9738                       # number of demand (read+write) accesses (Count)
system.l2.overallAccesses::switch_cpus.inst           82                       # number of overall (read+write) accesses (Count)
system.l2.overallAccesses::switch_cpus.data         9656                       # number of overall (read+write) accesses (Count)
system.l2.overallAccesses::total                 9738                       # number of overall (read+write) accesses (Count)
system.l2.demandMissRate::switch_cpus.inst            1                       # miss rate for demand accesses (Ratio)
system.l2.demandMissRate::switch_cpus.data     0.938484                       # miss rate for demand accesses (Ratio)
system.l2.demandMissRate::total              0.939002                       # miss rate for demand accesses (Ratio)
system.l2.overallMissRate::switch_cpus.inst            1                       # miss rate for overall accesses (Ratio)
system.l2.overallMissRate::switch_cpus.data     0.938484                       # miss rate for overall accesses (Ratio)
system.l2.overallMissRate::total             0.939002                       # miss rate for overall accesses (Ratio)
system.l2.demandAvgMissLatency::switch_cpus.inst 213585.365854                       # average overall miss latency in ticks ((Tick/Count))
system.l2.demandAvgMissLatency::switch_cpus.data 217762.690355                       # average overall miss latency in ticks ((Tick/Count))
system.l2.demandAvgMissLatency::total    217725.229659                       # average overall miss latency in ticks ((Tick/Count))
system.l2.overallAvgMissLatency::switch_cpus.inst 213585.365854                       # average overall miss latency ((Tick/Count))
system.l2.overallAvgMissLatency::switch_cpus.data 217762.690355                       # average overall miss latency ((Tick/Count))
system.l2.overallAvgMissLatency::total   217725.229659                       # average overall miss latency ((Tick/Count))
system.l2.blockedCycles::no_mshrs                   0                       # number of cycles access was blocked (Cycle)
system.l2.blockedCycles::no_targets                 0                       # number of cycles access was blocked (Cycle)
system.l2.blockedCauses::no_mshrs                   0                       # number of times access was blocked (Count)
system.l2.blockedCauses::no_targets                 0                       # number of times access was blocked (Count)
system.l2.avgBlocked::no_mshrs                    nan                       # average number of cycles each access was blocked ((Cycle/Count))
system.l2.avgBlocked::no_targets                  nan                       # average number of cycles each access was blocked ((Cycle/Count))
system.l2.writebacks::writebacks                 9052                       # number of writebacks (Count)
system.l2.writebacks::total                      9052                       # number of writebacks (Count)
system.l2.demandMshrMisses::switch_cpus.inst           82                       # number of demand (read+write) MSHR misses (Count)
system.l2.demandMshrMisses::switch_cpus.data         9062                       # number of demand (read+write) MSHR misses (Count)
system.l2.demandMshrMisses::total                9144                       # number of demand (read+write) MSHR misses (Count)
system.l2.overallMshrMisses::switch_cpus.inst           82                       # number of overall MSHR misses (Count)
system.l2.overallMshrMisses::switch_cpus.data         9062                       # number of overall MSHR misses (Count)
system.l2.overallMshrMisses::total               9144                       # number of overall MSHR misses (Count)
system.l2.demandMshrMissLatency::switch_cpus.inst     17473000                       # number of demand (read+write) MSHR miss ticks (Tick)
system.l2.demandMshrMissLatency::switch_cpus.data   1968834500                       # number of demand (read+write) MSHR miss ticks (Tick)
system.l2.demandMshrMissLatency::total     1986307500                       # number of demand (read+write) MSHR miss ticks (Tick)
system.l2.overallMshrMissLatency::switch_cpus.inst     17473000                       # number of overall MSHR miss ticks (Tick)
system.l2.overallMshrMissLatency::switch_cpus.data   1968834500                       # number of overall MSHR miss ticks (Tick)
system.l2.overallMshrMissLatency::total    1986307500                       # number of overall MSHR miss ticks (Tick)
system.l2.demandMshrMissRate::switch_cpus.inst            1                       # mshr miss ratio for demand accesses (Ratio)
system.l2.demandMshrMissRate::switch_cpus.data     0.938484                       # mshr miss ratio for demand accesses (Ratio)
system.l2.demandMshrMissRate::total          0.939002                       # mshr miss ratio for demand accesses (Ratio)
system.l2.overallMshrMissRate::switch_cpus.inst            1                       # mshr miss ratio for overall accesses (Ratio)
system.l2.overallMshrMissRate::switch_cpus.data     0.938484                       # mshr miss ratio for overall accesses (Ratio)
system.l2.overallMshrMissRate::total         0.939002                       # mshr miss ratio for overall accesses (Ratio)
system.l2.demandAvgMshrMissLatency::switch_cpus.inst 213085.365854                       # average overall mshr miss latency ((Tick/Count))
system.l2.demandAvgMshrMissLatency::switch_cpus.data 217262.690355                       # average overall mshr miss latency ((Tick/Count))
system.l2.demandAvgMshrMissLatency::total 217225.229659                       # average overall mshr miss latency ((Tick/Count))
system.l2.overallAvgMshrMissLatency::switch_cpus.inst 213085.365854                       # average overall mshr miss latency ((Tick/Count))
system.l2.overallAvgMshrMissLatency::switch_cpus.data 217262.690355                       # average overall mshr miss latency ((Tick/Count))
system.l2.overallAvgMshrMissLatency::total 217225.229659                       # average overall mshr miss latency ((Tick/Count))
system.l2.replacements                           9062                       # number of replacements (Count)
system.l2.CleanEvict.mshrMisses::writebacks           82                       # number of CleanEvict MSHR misses (Count)
system.l2.CleanEvict.mshrMisses::total             82                       # number of CleanEvict MSHR misses (Count)
system.l2.CleanEvict.mshrMissRate::writebacks          inf                       # mshr miss rate for CleanEvict accesses (Ratio)
system.l2.CleanEvict.mshrMissRate::total          inf                       # mshr miss rate for CleanEvict accesses (Ratio)
system.l2.ReadCleanReq.misses::switch_cpus.inst           82                       # number of ReadCleanReq misses (Count)
system.l2.ReadCleanReq.misses::total               82                       # number of ReadCleanReq misses (Count)
system.l2.ReadCleanReq.missLatency::switch_cpus.inst     17514000                       # number of ReadCleanReq miss ticks (Tick)
system.l2.ReadCleanReq.missLatency::total     17514000                       # number of ReadCleanReq miss ticks (Tick)
system.l2.ReadCleanReq.accesses::switch_cpus.inst           82                       # number of ReadCleanReq accesses(hits+misses) (Count)
system.l2.ReadCleanReq.accesses::total             82                       # number of ReadCleanReq accesses(hits+misses) (Count)
system.l2.ReadCleanReq.missRate::switch_cpus.inst            1                       # miss rate for ReadCleanReq accesses (Ratio)
system.l2.ReadCleanReq.missRate::total              1                       # miss rate for ReadCleanReq accesses (Ratio)
system.l2.ReadCleanReq.avgMissLatency::switch_cpus.inst 213585.365854                       # average ReadCleanReq miss latency ((Tick/Count))
system.l2.ReadCleanReq.avgMissLatency::total 213585.365854                       # average ReadCleanReq miss latency ((Tick/Count))
system.l2.ReadCleanReq.mshrMisses::switch_cpus.inst           82                       # number of ReadCleanReq MSHR misses (Count)
system.l2.ReadCleanReq.mshrMisses::total           82                       # number of ReadCleanReq MSHR misses (Count)
system.l2.ReadCleanReq.mshrMissLatency::switch_cpus.inst     17473000                       # number of ReadCleanReq MSHR miss ticks (Tick)
system.l2.ReadCleanReq.mshrMissLatency::total     17473000                       # number of ReadCleanReq MSHR miss ticks (Tick)
system.l2.ReadCleanReq.mshrMissRate::switch_cpus.inst            1                       # mshr miss rate for ReadCleanReq accesses (Ratio)
system.l2.ReadCleanReq.mshrMissRate::total            1                       # mshr miss rate for ReadCleanReq accesses (Ratio)
system.l2.ReadCleanReq.avgMshrMissLatency::switch_cpus.inst 213085.365854                       # average ReadCleanReq mshr miss latency ((Tick/Count))
system.l2.ReadCleanReq.avgMshrMissLatency::total 213085.365854                       # average ReadCleanReq mshr miss latency ((Tick/Count))
system.l2.ReadExReq.misses::switch_cpus.data         9053                       # number of ReadExReq misses (Count)
system.l2.ReadExReq.misses::total                9053                       # number of ReadExReq misses (Count)
system.l2.ReadExReq.missLatency::switch_cpus.data   1971251500                       # number of ReadExReq miss ticks (Tick)
system.l2.ReadExReq.missLatency::total     1971251500                       # number of ReadExReq miss ticks (Tick)
system.l2.ReadExReq.accesses::switch_cpus.data         9053                       # number of ReadExReq accesses(hits+misses) (Count)
system.l2.ReadExReq.accesses::total              9053                       # number of ReadExReq accesses(hits+misses) (Count)
system.l2.ReadExReq.missRate::switch_cpus.data            1                       # miss rate for ReadExReq accesses (Ratio)
system.l2.ReadExReq.missRate::total                 1                       # miss rate for ReadExReq accesses (Ratio)
system.l2.ReadExReq.avgMissLatency::switch_cpus.data 217745.664421                       # average ReadExReq miss latency ((Tick/Count))
system.l2.ReadExReq.avgMissLatency::total 217745.664421                       # average ReadExReq miss latency ((Tick/Count))
system.l2.ReadExReq.mshrMisses::switch_cpus.data         9053                       # number of ReadExReq MSHR misses (Count)
system.l2.ReadExReq.mshrMisses::total            9053                       # number of ReadExReq MSHR misses (Count)
system.l2.ReadExReq.mshrMissLatency::switch_cpus.data   1966725000                       # number of ReadExReq MSHR miss ticks (Tick)
system.l2.ReadExReq.mshrMissLatency::total   1966725000                       # number of ReadExReq MSHR miss ticks (Tick)
system.l2.ReadExReq.mshrMissRate::switch_cpus.data            1                       # mshr miss rate for ReadExReq accesses (Ratio)
system.l2.ReadExReq.mshrMissRate::total             1                       # mshr miss rate for ReadExReq accesses (Ratio)
system.l2.ReadExReq.avgMshrMissLatency::switch_cpus.data 217245.664421                       # average ReadExReq mshr miss latency ((Tick/Count))
system.l2.ReadExReq.avgMshrMissLatency::total 217245.664421                       # average ReadExReq mshr miss latency ((Tick/Count))
system.l2.ReadSharedReq.hits::switch_cpus.data          594                       # number of ReadSharedReq hits (Count)
system.l2.ReadSharedReq.hits::total               594                       # number of ReadSharedReq hits (Count)
system.l2.ReadSharedReq.misses::switch_cpus.data            9                       # number of ReadSharedReq misses (Count)
system.l2.ReadSharedReq.misses::total               9                       # number of ReadSharedReq misses (Count)
system.l2.ReadSharedReq.missLatency::switch_cpus.data      2114000                       # number of ReadSharedReq miss ticks (Tick)
system.l2.ReadSharedReq.missLatency::total      2114000                       # number of ReadSharedReq miss ticks (Tick)
system.l2.ReadSharedReq.accesses::switch_cpus.data          603                       # number of ReadSharedReq accesses(hits+misses) (Count)
system.l2.ReadSharedReq.accesses::total           603                       # number of ReadSharedReq accesses(hits+misses) (Count)
system.l2.ReadSharedReq.missRate::switch_cpus.data     0.014925                       # miss rate for ReadSharedReq accesses (Ratio)
system.l2.ReadSharedReq.missRate::total      0.014925                       # miss rate for ReadSharedReq accesses (Ratio)
system.l2.ReadSharedReq.avgMissLatency::switch_cpus.data 234888.888889                       # average ReadSharedReq miss latency ((Tick/Count))
system.l2.ReadSharedReq.avgMissLatency::total 234888.888889                       # average ReadSharedReq miss latency ((Tick/Count))
system.l2.ReadSharedReq.mshrMisses::switch_cpus.data            9                       # number of ReadSharedReq MSHR misses (Count)
system.l2.ReadSharedReq.mshrMisses::total            9                       # number of ReadSharedReq MSHR misses (Count)
system.l2.ReadSharedReq.mshrMissLatency::switch_cpus.data      2109500                       # number of ReadSharedReq MSHR miss ticks (Tick)
system.l2.ReadSharedReq.mshrMissLatency::total      2109500                       # number of ReadSharedReq MSHR miss ticks (Tick)
system.l2.ReadSharedReq.mshrMissRate::switch_cpus.data     0.014925                       # mshr miss rate for ReadSharedReq accesses (Ratio)
system.l2.ReadSharedReq.mshrMissRate::total     0.014925                       # mshr miss rate for ReadSharedReq accesses (Ratio)
system.l2.ReadSharedReq.avgMshrMissLatency::switch_cpus.data 234388.888889                       # average ReadSharedReq mshr miss latency ((Tick/Count))
system.l2.ReadSharedReq.avgMshrMissLatency::total 234388.888889                       # average ReadSharedReq mshr miss latency ((Tick/Count))
system.l2.WritebackClean.hits::writebacks          586                       # number of WritebackClean hits (Count)
system.l2.WritebackClean.hits::total              586                       # number of WritebackClean hits (Count)
system.l2.WritebackClean.accesses::writebacks          586                       # number of WritebackClean accesses(hits+misses) (Count)
system.l2.WritebackClean.accesses::total          586                       # number of WritebackClean accesses(hits+misses) (Count)
system.l2.WritebackDirty.hits::writebacks         9070                       # number of WritebackDirty hits (Count)
system.l2.WritebackDirty.hits::total             9070                       # number of WritebackDirty hits (Count)
system.l2.WritebackDirty.accesses::writebacks         9070                       # number of WritebackDirty accesses(hits+misses) (Count)
system.l2.WritebackDirty.accesses::total         9070                       # number of WritebackDirty accesses(hits+misses) (Count)
system.l2.power_state.pwrStateResidencyTicks::UNDEFINED 1270759196000                       # Cumulative time (in ticks) in various power states (Tick)
system.l2.tags.tagsInUse                    63.999988                       # Average ticks per tags in use ((Tick/Count))
system.l2.tags.totalRefs                         9720                       # Total number of references to valid blocks. (Count)
system.l2.tags.sampledRefs                       9720                       # Sample count of references to valid blocks. (Count)
system.l2.tags.avgRefs                              1                       # Average number of references to valid blocks. ((Count/Count))
system.l2.tags.warmupTick                           0                       # The tick when the warmup percentage was hit. (Tick)
system.l2.tags.occupancies::writebacks      63.999988                       # Average occupied blocks per tick, per requestor ((Count/Tick))
system.l2.tags.avgOccs::writebacks           1.000000                       # Average percentage of cache occupancy ((Ratio/Tick))
system.l2.tags.avgOccs::total                1.000000                       # Average percentage of cache occupancy ((Ratio/Tick))
system.l2.tags.occupanciesTaskId::1024             64                       # Occupied blocks per task id (Count)
system.l2.tags.ageTaskId_1024::1                    7                       # Occupied blocks per task id, per block age (Count)
system.l2.tags.ageTaskId_1024::2                   57                       # Occupied blocks per task id, per block age (Count)
system.l2.tags.ratioOccsTaskId::1024                1                       # Ratio of occupied blocks and all blocks, per task id (Ratio)
system.l2.tags.tagAccesses                       9656                       # Number of tag accesses (Count)
system.l2.tags.dataAccesses                      9656                       # Number of data accesses (Count)
system.l2.tags.hits                               594                       # The number of hits in each cache size. (Count)
system.l2.tags.misses                           18882                       # The number of misses in each cache size. (Count)
system.l2.tags.accesses                         19476                       # The number of accesses to the FA LRU cache. (Count)
system.l2.tags.power_state.pwrStateResidencyTicks::UNDEFINED 1270759196000                       # Cumulative time (in ticks) in various power states (Tick)
system.l3.demandMisses::switch_cpus.inst           82                       # number of demand (read+write) misses (Count)
system.l3.demandMisses::switch_cpus.data         9062                       # number of demand (read+write) misses (Count)
system.l3.demandMisses::total                    9144                       # number of demand (read+write) misses (Count)
system.l3.overallMisses::switch_cpus.inst           82                       # number of overall misses (Count)
system.l3.overallMisses::switch_cpus.data         9062                       # number of overall misses (Count)
system.l3.overallMisses::total                   9144                       # number of overall misses (Count)
system.l3.demandMissLatency::switch_cpus.inst     17350000                       # number of demand (read+write) miss ticks (Tick)
system.l3.demandMissLatency::switch_cpus.data   1955241500                       # number of demand (read+write) miss ticks (Tick)
system.l3.demandMissLatency::total         1972591500                       # number of demand (read+write) miss ticks (Tick)
system.l3.overallMissLatency::switch_cpus.inst     17350000                       # number of overall miss ticks (Tick)
system.l3.overallMissLatency::switch_cpus.data   1955241500                       # number of overall miss ticks (Tick)
system.l3.overallMissLatency::total        1972591500                       # number of overall miss ticks (Tick)
system.l3.demandAccesses::switch_cpus.inst           82                       # number of demand (read+write) accesses (Count)
system.l3.demandAccesses::switch_cpus.data         9062                       # number of demand (read+write) accesses (Count)
system.l3.demandAccesses::total                  9144                       # number of demand (read+write) accesses (Count)
system.l3.overallAccesses::switch_cpus.inst           82                       # number of overall (read+write) accesses (Count)
system.l3.overallAccesses::switch_cpus.data         9062                       # number of overall (read+write) accesses (Count)
system.l3.overallAccesses::total                 9144                       # number of overall (read+write) accesses (Count)
system.l3.demandMissRate::switch_cpus.inst            1                       # miss rate for demand accesses (Ratio)
system.l3.demandMissRate::switch_cpus.data            1                       # miss rate for demand accesses (Ratio)
system.l3.demandMissRate::total                     1                       # miss rate for demand accesses (Ratio)
system.l3.overallMissRate::switch_cpus.inst            1                       # miss rate for overall accesses (Ratio)
system.l3.overallMissRate::switch_cpus.data            1                       # miss rate for overall accesses (Ratio)
system.l3.overallMissRate::total                    1                       # miss rate for overall accesses (Ratio)
system.l3.demandAvgMissLatency::switch_cpus.inst 211585.365854                       # average overall miss latency in ticks ((Tick/Count))
system.l3.demandAvgMissLatency::switch_cpus.data 215762.690355                       # average overall miss latency in ticks ((Tick/Count))
system.l3.demandAvgMissLatency::total    215725.229659                       # average overall miss latency in ticks ((Tick/Count))
system.l3.overallAvgMissLatency::switch_cpus.inst 211585.365854                       # average overall miss latency ((Tick/Count))
system.l3.overallAvgMissLatency::switch_cpus.data 215762.690355                       # average overall miss latency ((Tick/Count))
system.l3.overallAvgMissLatency::total   215725.229659                       # average overall miss latency ((Tick/Count))
system.l3.blockedCycles::no_mshrs                   0                       # number of cycles access was blocked (Cycle)
system.l3.blockedCycles::no_targets                 0                       # number of cycles access was blocked (Cycle)
system.l3.blockedCauses::no_mshrs                   0                       # number of times access was blocked (Count)
system.l3.blockedCauses::no_targets                 0                       # number of times access was blocked (Count)
system.l3.avgBlocked::no_mshrs                    nan                       # average number of cycles each access was blocked ((Cycle/Count))
system.l3.avgBlocked::no_targets                  nan                       # average number of cycles each access was blocked ((Cycle/Count))
system.l3.writebacks::writebacks                 9053                       # number of writebacks (Count)
system.l3.writebacks::total                      9053                       # number of writebacks (Count)
system.l3.demandMshrMisses::switch_cpus.inst           82                       # number of demand (read+write) MSHR misses (Count)
system.l3.demandMshrMisses::switch_cpus.data         9062                       # number of demand (read+write) MSHR misses (Count)
system.l3.demandMshrMisses::total                9144                       # number of demand (read+write) MSHR misses (Count)
system.l3.overallMshrMisses::switch_cpus.inst           82                       # number of overall MSHR misses (Count)
system.l3.overallMshrMisses::switch_cpus.data         9062                       # number of overall MSHR misses (Count)
system.l3.overallMshrMisses::total               9144                       # number of overall MSHR misses (Count)
system.l3.demandMshrMissLatency::switch_cpus.inst     16530000                       # number of demand (read+write) MSHR miss ticks (Tick)
system.l3.demandMshrMissLatency::switch_cpus.data   1864621500                       # number of demand (read+write) MSHR miss ticks (Tick)
system.l3.demandMshrMissLatency::total     1881151500                       # number of demand (read+write) MSHR miss ticks (Tick)
system.l3.overallMshrMissLatency::switch_cpus.inst     16530000                       # number of overall MSHR miss ticks (Tick)
system.l3.overallMshrMissLatency::switch_cpus.data   1864621500                       # number of overall MSHR miss ticks (Tick)
system.l3.overallMshrMissLatency::total    1881151500                       # number of overall MSHR miss ticks (Tick)
system.l3.demandMshrMissRate::switch_cpus.inst            1                       # mshr miss ratio for demand accesses (Ratio)
system.l3.demandMshrMissRate::switch_cpus.data            1                       # mshr miss ratio for demand accesses (Ratio)
system.l3.demandMshrMissRate::total                 1                       # mshr miss ratio for demand accesses (Ratio)
system.l3.overallMshrMissRate::switch_cpus.inst            1                       # mshr miss ratio for overall accesses (Ratio)
system.l3.overallMshrMissRate::switch_cpus.data            1                       # mshr miss ratio for overall accesses (Ratio)
system.l3.overallMshrMissRate::total                1                       # mshr miss ratio for overall accesses (Ratio)
system.l3.demandAvgMshrMissLatency::switch_cpus.inst 201585.365854                       # average overall mshr miss latency ((Tick/Count))
system.l3.demandAvgMshrMissLatency::switch_cpus.data 205762.690355                       # average overall mshr miss latency ((Tick/Count))
system.l3.demandAvgMshrMissLatency::total 205725.229659                       # average overall mshr miss latency ((Tick/Count))
system.l3.overallAvgMshrMissLatency::switch_cpus.inst 201585.365854                       # average overall mshr miss latency ((Tick/Count))
system.l3.overallAvgMshrMissLatency::switch_cpus.data 205762.690355                       # average overall mshr miss latency ((Tick/Count))
system.l3.overallAvgMshrMissLatency::total 205725.229659                       # average overall mshr miss latency ((Tick/Count))
system.l3.replacements                           9144                       # number of replacements (Count)
system.l3.CleanEvict.mshrMisses::writebacks           84                       # number of CleanEvict MSHR misses (Count)
system.l3.CleanEvict.mshrMisses::total             84                       # number of CleanEvict MSHR misses (Count)
system.l3.CleanEvict.mshrMissRate::writebacks          inf                       # mshr miss rate for CleanEvict accesses (Ratio)
system.l3.CleanEvict.mshrMissRate::total          inf                       # mshr miss rate for CleanEvict accesses (Ratio)
system.l3.ReadCleanReq.misses::switch_cpus.inst           82                       # number of ReadCleanReq misses (Count)
system.l3.ReadCleanReq.misses::switch_cpus.data            9                       # number of ReadCleanReq misses (Count)
system.l3.ReadCleanReq.misses::total               91                       # number of ReadCleanReq misses (Count)
system.l3.ReadCleanReq.missLatency::switch_cpus.inst     17350000                       # number of ReadCleanReq miss ticks (Tick)
system.l3.ReadCleanReq.missLatency::switch_cpus.data      2096000                       # number of ReadCleanReq miss ticks (Tick)
system.l3.ReadCleanReq.missLatency::total     19446000                       # number of ReadCleanReq miss ticks (Tick)
system.l3.ReadCleanReq.accesses::switch_cpus.inst           82                       # number of ReadCleanReq accesses(hits+misses) (Count)
system.l3.ReadCleanReq.accesses::switch_cpus.data            9                       # number of ReadCleanReq accesses(hits+misses) (Count)
system.l3.ReadCleanReq.accesses::total             91                       # number of ReadCleanReq accesses(hits+misses) (Count)
system.l3.ReadCleanReq.missRate::switch_cpus.inst            1                       # miss rate for ReadCleanReq accesses (Ratio)
system.l3.ReadCleanReq.missRate::switch_cpus.data            1                       # miss rate for ReadCleanReq accesses (Ratio)
system.l3.ReadCleanReq.missRate::total              1                       # miss rate for ReadCleanReq accesses (Ratio)
system.l3.ReadCleanReq.avgMissLatency::switch_cpus.inst 211585.365854                       # average ReadCleanReq miss latency ((Tick/Count))
system.l3.ReadCleanReq.avgMissLatency::switch_cpus.data 232888.888889                       # average ReadCleanReq miss latency ((Tick/Count))
system.l3.ReadCleanReq.avgMissLatency::total 213692.307692                       # average ReadCleanReq miss latency ((Tick/Count))
system.l3.ReadCleanReq.mshrMisses::switch_cpus.inst           82                       # number of ReadCleanReq MSHR misses (Count)
system.l3.ReadCleanReq.mshrMisses::switch_cpus.data            9                       # number of ReadCleanReq MSHR misses (Count)
system.l3.ReadCleanReq.mshrMisses::total           91                       # number of ReadCleanReq MSHR misses (Count)
system.l3.ReadCleanReq.mshrMissLatency::switch_cpus.inst     16530000                       # number of ReadCleanReq MSHR miss ticks (Tick)
system.l3.ReadCleanReq.mshrMissLatency::switch_cpus.data      2006000                       # number of ReadCleanReq MSHR miss ticks (Tick)
system.l3.ReadCleanReq.mshrMissLatency::total     18536000                       # number of ReadCleanReq MSHR miss ticks (Tick)
system.l3.ReadCleanReq.mshrMissRate::switch_cpus.inst            1                       # mshr miss rate for ReadCleanReq accesses (Ratio)
system.l3.ReadCleanReq.mshrMissRate::switch_cpus.data            1                       # mshr miss rate for ReadCleanReq accesses (Ratio)
system.l3.ReadCleanReq.mshrMissRate::total            1                       # mshr miss rate for ReadCleanReq accesses (Ratio)
system.l3.ReadCleanReq.avgMshrMissLatency::switch_cpus.inst 201585.365854                       # average ReadCleanReq mshr miss latency ((Tick/Count))
system.l3.ReadCleanReq.avgMshrMissLatency::switch_cpus.data 222888.888889                       # average ReadCleanReq mshr miss latency ((Tick/Count))
system.l3.ReadCleanReq.avgMshrMissLatency::total 203692.307692                       # average ReadCleanReq mshr miss latency ((Tick/Count))
system.l3.ReadExReq.misses::switch_cpus.data         9053                       # number of ReadExReq misses (Count)
system.l3.ReadExReq.misses::total                9053                       # number of ReadExReq misses (Count)
system.l3.ReadExReq.missLatency::switch_cpus.data   1953145500                       # number of ReadExReq miss ticks (Tick)
system.l3.ReadExReq.missLatency::total     1953145500                       # number of ReadExReq miss ticks (Tick)
system.l3.ReadExReq.accesses::switch_cpus.data         9053                       # number of ReadExReq accesses(hits+misses) (Count)
system.l3.ReadExReq.accesses::total              9053                       # number of ReadExReq accesses(hits+misses) (Count)
system.l3.ReadExReq.missRate::switch_cpus.data            1                       # miss rate for ReadExReq accesses (Ratio)
system.l3.ReadExReq.missRate::total                 1                       # miss rate for ReadExReq accesses (Ratio)
system.l3.ReadExReq.avgMissLatency::switch_cpus.data 215745.664421                       # average ReadExReq miss latency ((Tick/Count))
system.l3.ReadExReq.avgMissLatency::total 215745.664421                       # average ReadExReq miss latency ((Tick/Count))
system.l3.ReadExReq.mshrMisses::switch_cpus.data         9053                       # number of ReadExReq MSHR misses (Count)
system.l3.ReadExReq.mshrMisses::total            9053                       # number of ReadExReq MSHR misses (Count)
system.l3.ReadExReq.mshrMissLatency::switch_cpus.data   1862615500                       # number of ReadExReq MSHR miss ticks (Tick)
system.l3.ReadExReq.mshrMissLatency::total   1862615500                       # number of ReadExReq MSHR miss ticks (Tick)
system.l3.ReadExReq.mshrMissRate::switch_cpus.data            1                       # mshr miss rate for ReadExReq accesses (Ratio)
system.l3.ReadExReq.mshrMissRate::total             1                       # mshr miss rate for ReadExReq accesses (Ratio)
system.l3.ReadExReq.avgMshrMissLatency::switch_cpus.data 205745.664421                       # average ReadExReq mshr miss latency ((Tick/Count))
system.l3.ReadExReq.avgMshrMissLatency::total 205745.664421                       # average ReadExReq mshr miss latency ((Tick/Count))
system.l3.WritebackDirty.hits::writebacks         9052                       # number of WritebackDirty hits (Count)
system.l3.WritebackDirty.hits::total             9052                       # number of WritebackDirty hits (Count)
[...]
system.switch_cpus.committedInstType_0::FloatMultAcc            0      0.00%     80.97% # Class of committed instruction (Count)
system.switch_cpus.committedInstType_0::FloatDiv            0      0.00%     80.97% # Class of committed instruction (Count)
system.switch_cpus.committedInstType_0::FloatMisc            0      0.00%     80.97% # Class of committed instruction (Count)
system.switch_cpus.committedInstType_0::FloatSqrt            0      0.00%     80.97% # Class of committed instruction (Count)
system.switch_cpus.committedInstType_0::SimdAdd            4      0.00%     80.97% # Class of committed instruction (Count)
system.switch_cpus.committedInstType_0::SimdAddAcc            0      0.00%     80.97% # Class of committed instruction (Count)
system.switch_cpus.committedInstType_0::SimdAlu           16      0.00%     80.97% # Class of committed instruction (Count)
system.switch_cpus.committedInstType_0::SimdCmp            0      0.00%     80.97% # Class of committed instruction (Count)
system.switch_cpus.committedInstType_0::SimdCvt           16      0.00%     80.97% # Class of committed instruction (Count)
system.switch_cpus.committedInstType_0::SimdMisc           12      0.00%     80.97% # Class of committed instruction (Count)
system.switch_cpus.committedInstType_0::SimdMult            0      0.00%     80.97% # Class of committed instruction (Count)
system.switch_cpus.committedInstType_0::SimdMultAcc            0      0.00%     80.97% # Class of committed instruction (Count)
system.switch_cpus.committedInstType_0::SimdShift            7      0.00%     80.97% # Class of committed instruction (Count)
system.switch_cpus.committedInstType_0::SimdShiftAcc            0      0.00%     80.97% # Class of committed instruction (Count)
system.switch_cpus.committedInstType_0::SimdDiv            0      0.00%     80.97% # Class of committed instruction (Count)
system.switch_cpus.committedInstType_0::SimdSqrt            0      0.00%     80.97% # Class of committed instruction (Count)
system.switch_cpus.committedInstType_0::SimdFloatAdd            0      0.00%     80.97% # Class of committed instruction (Count)
system.switch_cpus.committedInstType_0::SimdFloatAlu            0      0.00%     80.97% # Class of committed instruction (Count)
system.switch_cpus.committedInstType_0::SimdFloatCmp            0      0.00%     80.97% # Class of committed instruction (Count)
system.switch_cpus.committedInstType_0::SimdFloatCvt            0      0.00%     80.97% # Class of committed instruction (Count)
system.switch_cpus.committedInstType_0::SimdFloatDiv            0      0.00%     80.97% # Class of committed instruction (Count)
system.switch_cpus.committedInstType_0::SimdFloatMisc            0      0.00%     80.97% # Class of committed instruction (Count)
system.switch_cpus.committedInstType_0::SimdFloatMult            0      0.00%     80.97% # Class of committed instruction (Count)
system.switch_cpus.committedInstType_0::SimdFloatMultAcc            0      0.00%     80.97% # Class of committed instruction (Count)
system.switch_cpus.committedInstType_0::SimdFloatSqrt            0      0.00%     80.97% # Class of committed instruction (Count)
system.switch_cpus.committedInstType_0::SimdReduceAdd            0      0.00%     80.97% # Class of committed instruction (Count)
system.switch_cpus.committedInstType_0::SimdReduceAlu            0      0.00%     80.97% # Class of committed instruction (Count)
system.switch_cpus.committedInstType_0::SimdReduceCmp            0      0.00%     80.97% # Class of committed instruction (Count)
system.switch_cpus.committedInstType_0::SimdFloatReduceAdd            0      0.00%     80.97% # Class of committed instruction (Count)
system.switch_cpus.committedInstType_0::SimdFloatReduceCmp            0      0.00%     80.97% # Class of committed instruction (Count)
system.switch_cpus.committedInstType_0::SimdAes            0      0.00%     80.97% # Class of committed instruction (Count)
system.switch_cpus.committedInstType_0::SimdAesMix            0      0.00%     80.97% # Class of committed instruction (Count)
system.switch_cpus.committedInstType_0::SimdSha1Hash            0      0.00%     80.97% # Class of committed instruction (Count)
system.switch_cpus.committedInstType_0::SimdSha1Hash2            0      0.00%     80.97% # Class of committed instruction (Count)
system.switch_cpus.committedInstType_0::SimdSha256Hash            0      0.00%     80.97% # Class of committed instruction (Count)
system.switch_cpus.committedInstType_0::SimdSha256Hash2            0      0.00%     80.97% # Class of committed instruction (Count)
system.switch_cpus.committedInstType_0::SimdShaSigma2            0      0.00%     80.97% # Class of committed instruction (Count)
system.switch_cpus.committedInstType_0::SimdShaSigma3            0      0.00%     80.97% # Class of committed instruction (Count)
system.switch_cpus.committedInstType_0::SimdPredAlu            0      0.00%     80.97% # Class of committed instruction (Count)
system.switch_cpus.committedInstType_0::MemRead     23514838     12.51%     93.48% # Class of committed instruction (Count)
system.switch_cpus.committedInstType_0::MemWrite     12037238      6.40%     99.88% # Class of committed instruction (Count)
system.switch_cpus.committedInstType_0::FloatMemRead        75696      0.04%     99.92% # Class of committed instruction (Count)
system.switch_cpus.committedInstType_0::FloatMemWrite       151356      0.08%    100.00% # Class of committed instruction (Count)
system.switch_cpus.committedInstType_0::IprAccess            0      0.00%    100.00% # Class of committed instruction (Count)
system.switch_cpus.committedInstType_0::InstPrefetch            0      0.00%    100.00% # Class of committed instruction (Count)
system.switch_cpus.committedInstType_0::total    187995640                       # Class of committed instruction (Count)
system.switch_cpus.branchPred.lookups               0                       # Number of BP lookups (Count)
system.switch_cpus.branchPred.condPredicted            0                       # Number of conditional branches predicted (Count)
system.switch_cpus.branchPred.condIncorrect            0                       # Number of conditional branches incorrect (Count)
system.switch_cpus.branchPred.BTBLookups            0                       # Number of BTB lookups (Count)
system.switch_cpus.branchPred.BTBHits               0                       # Number of BTB hits (Count)
system.switch_cpus.branchPred.BTBHitRatio          nan                       # BTB Hit Ratio (Ratio)
system.switch_cpus.branchPred.RASUsed               0                       # Number of times the RAS was used to get a target. (Count)
system.switch_cpus.branchPred.RASIncorrect            0                       # Number of incorrect RAS predictions. (Count)
system.switch_cpus.branchPred.indirectLookups            0                       # Number of indirect predictor lookups. (Count)
system.switch_cpus.branchPred.indirectHits            0                       # Number of indirect target hits. (Count)
system.switch_cpus.branchPred.indirectMisses            0                       # Number of indirect misses. (Count)
system.switch_cpus.branchPred.indirectMispredicted            0                       # Number of mispredicted indirect branches. (Count)
system.switch_cpus.fetch2.intInstructions            0                       # Number of integer instructions successfully decoded (Count)
system.switch_cpus.fetch2.fpInstructions            0                       # Number of floating point instructions successfully decoded (Count)
system.switch_cpus.fetch2.vecInstructions            0                       # Number of SIMD instructions successfully decoded (Count)
system.switch_cpus.fetch2.loadInstructions            0                       # Number of memory load instructions successfully decoded (Count)
system.switch_cpus.fetch2.storeInstructions            0                       # Number of memory store instructions successfully decoded (Count)
system.switch_cpus.fetch2.amoInstructions            0                       # Number of memory atomic instructions successfully decoded (Count)
system.switch_cpus.mmu.dtb.rdAccesses        28792899                       # TLB accesses on read requests (Count)
system.switch_cpus.mmu.dtb.wrAccesses        13181239                       # TLB accesses on write requests (Count)
system.switch_cpus.mmu.dtb.rdMisses             37857                       # TLB misses on read requests (Count)
system.switch_cpus.mmu.dtb.wrMisses               280                       # TLB misses on write requests (Count)
system.switch_cpus.mmu.dtb.walker.power_state.pwrStateResidencyTicks::UNDEFINED 1270759196000                       # Cumulative time (in ticks) in various power states (Tick)
system.switch_cpus.mmu.itb.rdAccesses               0                       # TLB accesses on read requests (Count)
system.switch_cpus.mmu.itb.wrAccesses        35476200                       # TLB accesses on write requests (Count)
system.switch_cpus.mmu.itb.rdMisses                 0                       # TLB misses on read requests (Count)
system.switch_cpus.mmu.itb.wrMisses                22                       # TLB misses on write requests (Count)
system.switch_cpus.mmu.itb.walker.power_state.pwrStateResidencyTicks::UNDEFINED 1270759196000                       # Cumulative time (in ticks) in various power states (Tick)
system.switch_cpus.power_state.pwrStateResidencyTicks::OFF 1270759196000                       # Cumulative time (in ticks) in various power states (Tick)
system.switch_cpus.thread_0.numInsts        100000001                       # Number of Instructions committed (Count)
system.switch_cpus.thread_0.numOps          187995640                       # Number of Ops committed (Count)
system.switch_cpus.thread_0.numMemRefs              0                       # Number of Memory References (Count)
system.tol2bus.transDist::ReadResp                685                       # Transaction distribution (Count)
system.tol2bus.transDist::WritebackDirty        18122                       # Transaction distribution (Count)
system.tol2bus.transDist::WritebackClean          586                       # Transaction distribution (Count)
system.tol2bus.transDist::CleanEvict              175                       # Transaction distribution (Count)
system.tol2bus.transDist::ReadExReq              9053                       # Transaction distribution (Count)
system.tol2bus.transDist::ReadExResp             9053                       # Transaction distribution (Count)
system.tol2bus.transDist::ReadCleanReq             82                       # Transaction distribution (Count)
system.tol2bus.transDist::ReadSharedReq           603                       # Transaction distribution (Count)
system.tol2bus.pktCount_system.cpu.icache.mem_side_port::system.l2.cpu_side_port          246                       # Packet count per connected requestor and responder (Count)
system.tol2bus.pktCount_system.cpu.dcache.mem_side_port::system.l2.cpu_side_port        28968                       # Packet count per connected requestor and responder (Count)
system.tol2bus.pktCount::total                  29214                       # Packet count per connected requestor and responder (Count)
system.tol2bus.pktSize_system.cpu.icache.mem_side_port::system.l2.cpu_side_port         5248                       # Cumulative packet size per connected requestor and responder (Byte)
system.tol2bus.pktSize_system.cpu.dcache.mem_side_port::system.l2.cpu_side_port      1235968                       # Cumulative packet size per connected requestor and responder (Byte)
system.tol2bus.pktSize::total                 1241216                       # Cumulative packet size per connected requestor and responder (Byte)
system.tol2bus.snoops                            9145                       # Total snoops (Count)
system.tol2bus.snoopTraffic                    579328                       # Total snoop traffic (Byte)
system.tol2bus.snoopFanout::samples             18883                       # Request fanout histogram (Count)
system.tol2bus.snoopFanout::mean             0.004395                       # Request fanout histogram (Count)
system.tol2bus.snoopFanout::stdev            0.066154                       # Request fanout histogram (Count)
system.tol2bus.snoopFanout::underflows              0      0.00%      0.00% # Request fanout histogram (Count)
system.tol2bus.snoopFanout::0                   18800     99.56%     99.56% # Request fanout histogram (Count)
system.tol2bus.snoopFanout::1                      83      0.44%    100.00% # Request fanout histogram (Count)
system.tol2bus.snoopFanout::2                       0      0.00%    100.00% # Request fanout histogram (Count)
system.tol2bus.snoopFanout::3                       0      0.00%    100.00% # Request fanout histogram (Count)
system.tol2bus.snoopFanout::4                       0      0.00%    100.00% # Request fanout histogram (Count)
system.tol2bus.snoopFanout::overflows               0      0.00%    100.00% # Request fanout histogram (Count)
system.tol2bus.snoopFanout::min_value               0                       # Request fanout histogram (Count)
system.tol2bus.snoopFanout::max_value               1                       # Request fanout histogram (Count)
system.tol2bus.snoopFanout::total               18883                       # Request fanout histogram (Count)
system.tol2bus.power_state.pwrStateResidencyTicks::UNDEFINED 1270759196000                       # Cumulative time (in ticks) in various power states (Tick)
system.tol2bus.reqLayer0.occupancy           19394000                       # Layer occupancy (ticks) (Tick)
system.tol2bus.reqLayer0.utilization              0.0                       # Layer utilization (Ratio)
system.tol2bus.respLayer0.occupancy            123000                       # Layer occupancy (ticks) (Tick)
system.tol2bus.respLayer0.utilization             0.0                       # Layer utilization (Ratio)
system.tol2bus.respLayer1.occupancy          14484000                       # Layer occupancy (ticks) (Tick)
system.tol2bus.respLayer1.utilization             0.0                       # Layer utilization (Ratio)
system.tol2bus.snoop_filter.totRequests         19476                       # Total number of requests made to the snoop filter. (Count)
system.tol2bus.snoop_filter.hitSingleRequests         9738                       # Number of requests hitting in the snoop filter with a single holder of the requested data. (Count)
system.tol2bus.snoop_filter.hitMultiRequests            0                       # Number of requests hitting in the snoop filter with multiple (>1) holders of the requested data. (Count)
system.tol2bus.snoop_filter.totSnoops              83                       # Total number of snoops made to the snoop filter. (Count)
system.tol2bus.snoop_filter.hitSingleSnoops           83                       # Number of snoops hitting in the snoop filter with a single holder of the requested data. (Count)
system.tol2bus.snoop_filter.hitMultiSnoops            0                       # Number of snoops hitting in the snoop filter with multiple (>1) holders of the requested data. (Count)
system.tol3bus.transDist::ReadResp                 91                       # Transaction distribution (Count)
system.tol3bus.transDist::WritebackDirty        18105                       # Transaction distribution (Count)
system.tol3bus.transDist::CleanEvict              183                       # Transaction distribution (Count)
system.tol3bus.transDist::ReadExReq              9053                       # Transaction distribution (Count)
system.tol3bus.transDist::ReadExResp             9053                       # Transaction distribution (Count)
system.tol3bus.transDist::ReadCleanReq             91                       # Transaction distribution (Count)
system.tol3bus.pktCount_system.l2.mem_side_port::system.l3.cpu_side_port        27432                       # Packet count per connected requestor and responder (Count)
system.tol3bus.pktSize_system.l2.mem_side_port::system.l3.cpu_side_port      1164544                       # Cumulative packet size per connected requestor and responder (Byte)
system.tol3bus.snoops                            9144                       # Total snoops (Count)
system.tol3bus.snoopTraffic                    579392                       # Total snoop traffic (Byte)
system.tol3bus.snoopFanout::samples             18288                       # Request fanout histogram (Count)
system.tol3bus.snoopFanout::mean             0.004538                       # Request fanout histogram (Count)
system.tol3bus.snoopFanout::stdev            0.067217                       # Request fanout histogram (Count)
system.tol3bus.snoopFanout::underflows              0      0.00%      0.00% # Request fanout histogram (Count)
system.tol3bus.snoopFanout::0                   18205     99.55%     99.55% # Request fanout histogram (Count)
system.tol3bus.snoopFanout::1                      83      0.45%    100.00% # Request fanout histogram (Count)
system.tol3bus.snoopFanout::overflows               0      0.00%    100.00% # Request fanout histogram (Count)
system.tol3bus.snoopFanout::min_value               0                       # Request fanout histogram (Count)
system.tol3bus.snoopFanout::max_value               1                       # Request fanout histogram (Count)
system.tol3bus.snoopFanout::total               18288                       # Request fanout histogram (Count)
system.tol3bus.power_state.pwrStateResidencyTicks::UNDEFINED 1270759196000                       # Cumulative time (in ticks) in various power states (Tick)
system.tol3bus.reqLayer0.occupancy           18196000                       # Layer occupancy (ticks) (Tick)
system.tol3bus.reqLayer0.utilization              0.0                       # Layer utilization (Ratio)
system.tol3bus.respLayer0.occupancy          13716000                       # Layer occupancy (ticks) (Tick)
system.tol3bus.respLayer0.utilization             0.0                       # Layer utilization (Ratio)
system.tol3bus.snoop_filter.totRequests         18288                       # Total number of requests made to the snoop filter. (Count)
system.tol3bus.snoop_filter.hitSingleRequests         9144                       # Number of requests hitting in the snoop filter with a single holder of the requested data. (Count)
system.tol3bus.snoop_filter.hitMultiRequests            0                       # Number of requests hitting in the snoop filter with multiple (>1) holders of the requested data. (Count)
system.tol3bus.snoop_filter.totSnoops              83                       # Total number of snoops made to the snoop filter. (Count)
system.tol3bus.snoop_filter.hitSingleSnoops           83                       # Number of snoops hitting in the snoop filter with a single holder of the requested data. (Count)
system.tol3bus.snoop_filter.hitMultiSnoops            0                       # Number of snoops hitting in the snoop filter with multiple (>1) holders of the requested data. (Count)
system.voltage_domain.voltage                       1                       # Voltage in Volts (Volt)
system.workload.inst.arm                            0                       # number of arm instructions executed (Count)
system.workload.inst.quiesce                        0                       # number of quiesce instructions executed (Count)
system.switch_cpus.idleCycles                  392828                       # Total number of cycles that the object has spent stopped (Unspecified)
system.switch_cpus.tickCycles               241856448                       # Number of cycles that the object actually ticked (Unspecified)

---------- End Simulation Statistics   ----------
