
---------- Begin Simulation Statistics ----------
simSeconds                                   0.211164                       # Number of seconds simulated (Second)
simTicks                                 211163943500                       # Number of ticks simulated (Tick)
finalTick                                1427426685500                       # Number of ticks from beginning of simulation (restored from checkpoints and never reset) (Tick)
simFreq                                  1000000000000                       # The number of ticks per simulated second ((Tick/Second))
hostSeconds                                    476.35                       # Real time elapsed on the host (Second)
hostTickRate                                443298010                       # The number of ticks simulated per host second (ticks/s) ((Tick/Second))
hostMemory                                    8951752                       # Number of bytes of host memory used (Byte)
simInsts                                   1100000001                       # Number of instructions simulated (Count)
simOps                                     2047789082                       # Number of ops (including micro ops) simulated (Count)
hostInstRate                                  2309234                       # Simulator instruction rate (inst/s) ((Count/Second))
hostOpRate                                    4298929                       # Simulator op (including micro ops) rate (op/s) ((Count/Second))
system.clk_domain.clock                          1000                       # Clock period in ticks (Tick)
system.cpu.numCycles                                0                       # Number of cpu cycles simulated (Cycle)
system.cpu.numWorkItemsStarted                      0                       # Number of work items this cpu started (Count)
system.cpu.numWorkItemsCompleted                    0                       # Number of work items this cpu completed (Count)
system.cpu.dcache.demandHits::switch_cpus.data     26320369                       # number of demand (read+write) hits (Count)
system.cpu.dcache.demandHits::total          26320369                       # number of demand (read+write) hits (Count)
system.cpu.dcache.overallHits::switch_cpus.data     26320369                       # number of overall hits (Count)
system.cpu.dcache.overallHits::total         26320369                       # number of overall hits (Count)
system.cpu.dcache.demandMisses::switch_cpus.data      1932684                       # number of demand (read+write) misses (Count)
system.cpu.dcache.demandMisses::total         1932684                       # number of demand (read+write) misses (Count)
system.cpu.dcache.overallMisses::switch_cpus.data      1932684                       # number of overall misses (Count)
system.cpu.dcache.overallMisses::total        1932684                       # number of overall misses (Count)
system.cpu.dcache.demandMissLatency::switch_cpus.data  55553671500                       # number of demand (read+write) miss ticks (Tick)
system.cpu.dcache.demandMissLatency::total  55553671500                       # number of demand (read+write) miss ticks (Tick)
system.cpu.dcache.overallMissLatency::switch_cpus.data  55553671500                       # number of overall miss ticks (Tick)
system.cpu.dcache.overallMissLatency::total  55553671500                       # number of overall miss ticks (Tick)
system.cpu.dcache.demandAccesses::switch_cpus.data     28253053                       # number of demand (read+write) accesses (Count)
system.cpu.dcache.demandAccesses::total      28253053                       # number of demand (read+write) accesses (Count)
system.cpu.dcache.overallAccesses::switch_cpus.data     28253053                       # number of overall (read+write) accesses (Count)
system.cpu.dcache.overallAccesses::total     28253053                       # number of overall (read+write) accesses (Count)
system.cpu.dcache.demandMissRate::switch_cpus.data     0.068406                       # miss rate for demand accesses (Ratio)
system.cpu.dcache.demandMissRate::total      0.068406                       # miss rate for demand accesses (Ratio)
system.cpu.dcache.overallMissRate::switch_cpus.data     0.068406                       # miss rate for overall accesses (Ratio)
system.cpu.dcache.overallMissRate::total     0.068406                       # miss rate for overall accesses (Ratio)
system.cpu.dcache.demandAvgMissLatency::switch_cpus.data 28744.311796                       # average overall miss latency in ticks ((Tick/Count))
system.cpu.dcache.demandAvgMissLatency::total 28744.311796                       # average overall miss latency in ticks ((Tick/Count))
system.cpu.dcache.overallAvgMissLatency::switch_cpus.data 28744.311796                       # average overall miss latency ((Tick/Count))
system.cpu.dcache.overallAvgMissLatency::total 28744.311796                       # average overall miss latency ((Tick/Count))
system.cpu.dcache.blockedCycles::no_mshrs            0                       # number of cycles access was blocked (Cycle)
system.cpu.dcache.blockedCycles::no_targets            0                       # number of cycles access was blocked (Cycle)
system.cpu.dcache.blockedCauses::no_mshrs            0                       # number of times access was blocked (Count)
system.cpu.dcache.blockedCauses::no_targets            0                       # number of times access was blocked (Count)
system.cpu.dcache.avgBlocked::no_mshrs            nan                       # average number of cycles each access was blocked ((Cycle/Count))
system.cpu.dcache.avgBlocked::no_targets          nan                       # average number of cycles each access was blocked ((Cycle/Count))
system.cpu.dcache.writebacks::writebacks      1846334                       # number of writebacks (Count)
system.cpu.dcache.writebacks::total           1846334                       # number of writebacks (Count)
system.cpu.dcache.demandMshrHits::switch_cpus.data        86350                       # number of demand (read+write) MSHR hits (Count)
system.cpu.dcache.demandMshrHits::total         86350                       # number of demand (read+write) MSHR hits (Count)
system.cpu.dcache.overallMshrHits::switch_cpus.data        86350                       # number of overall MSHR hits (Count)
system.cpu.dcache.overallMshrHits::total        86350                       # number of overall MSHR hits (Count)
system.cpu.dcache.demandMshrMisses::switch_cpus.data      1846334                       # number of demand (read+write) MSHR misses (Count)
system.cpu.dcache.demandMshrMisses::total      1846334                       # number of demand (read+write) MSHR misses (Count)
system.cpu.dcache.overallMshrMisses::switch_cpus.data      1846334                       # number of overall MSHR misses (Count)
system.cpu.dcache.overallMshrMisses::total      1846334                       # number of overall MSHR misses (Count)
system.cpu.dcache.demandMshrMissLatency::switch_cpus.data  39655765000                       # number of demand (read+write) MSHR miss ticks (Tick)
system.cpu.dcache.demandMshrMissLatency::total  39655765000                       # number of demand (read+write) MSHR miss ticks (Tick)
system.cpu.dcache.overallMshrMissLatency::switch_cpus.data  39655765000                       # number of overall MSHR miss ticks (Tick)
system.cpu.dcache.overallMshrMissLatency::total  39655765000                       # number of overall MSHR miss ticks (Tick)
system.cpu.dcache.demandMshrMissRate::switch_cpus.data     0.065350                       # mshr miss ratio for demand accesses (Ratio)
system.cpu.dcache.demandMshrMissRate::total     0.065350                       # mshr miss ratio for demand accesses (Ratio)
system.cpu.dcache.overallMshrMissRate::switch_cpus.data     0.065350                       # mshr miss ratio for overall accesses (Ratio)
system.cpu.dcache.overallMshrMissRate::total     0.065350                       # mshr miss ratio for overall accesses (Ratio)
system.cpu.dcache.demandAvgMshrMissLatency::switch_cpus.data 21478.110136                       # average overall mshr miss latency ((Tick/Count))
system.cpu.dcache.demandAvgMshrMissLatency::total 21478.110136                       # average overall mshr miss latency ((Tick/Count))
system.cpu.dcache.overallAvgMshrMissLatency::switch_cpus.data 21478.110136                       # average overall mshr miss latency ((Tick/Count))
system.cpu.dcache.overallAvgMshrMissLatency::total 21478.110136                       # average overall mshr miss latency ((Tick/Count))
system.cpu.dcache.replacements                1846334                       # number of replacements (Count)
system.cpu.dcache.ReadReq.hits::switch_cpus.data     20675643                       # number of ReadReq hits (Count)
system.cpu.dcache.ReadReq.hits::total        20675643                       # number of ReadReq hits (Count)
system.cpu.dcache.ReadReq.misses::switch_cpus.data      1921518                       # number of ReadReq misses (Count)
system.cpu.dcache.ReadReq.misses::total       1921518                       # number of ReadReq misses (Count)
system.cpu.dcache.ReadReq.missLatency::switch_cpus.data  55515954000                       # number of ReadReq miss ticks (Tick)
system.cpu.dcache.ReadReq.missLatency::total  55515954000                       # number of ReadReq miss ticks (Tick)
system.cpu.dcache.ReadReq.accesses::switch_cpus.data     22597161                       # number of ReadReq accesses(hits+misses) (Count)
system.cpu.dcache.ReadReq.accesses::total     22597161                       # number of ReadReq accesses(hits+misses) (Count)
system.cpu.dcache.ReadReq.missRate::switch_cpus.data     0.085034                       # miss rate for ReadReq accesses (Ratio)
system.cpu.dcache.ReadReq.missRate::total     0.085034                       # miss rate for ReadReq accesses (Ratio)
system.cpu.dcache.ReadReq.avgMissLatency::switch_cpus.data 28891.716861                       # average ReadReq miss latency ((Tick/Count))
system.cpu.dcache.ReadReq.avgMissLatency::total 28891.716861                       # average ReadReq miss latency ((Tick/Count))
system.cpu.dcache.ReadReq.mshrHits::switch_cpus.data        82924                       # number of ReadReq MSHR hits (Count)
system.cpu.dcache.ReadReq.mshrHits::total        82924                       # number of ReadReq MSHR hits (Count)
system.cpu.dcache.ReadReq.mshrMisses::switch_cpus.data      1838594                       # number of ReadReq MSHR misses (Count)
system.cpu.dcache.ReadReq.mshrMisses::total      1838594                       # number of ReadReq MSHR misses (Count)
system.cpu.dcache.ReadReq.mshrMissLatency::switch_cpus.data  39635956500                       # number of ReadReq MSHR miss ticks (Tick)
system.cpu.dcache.ReadReq.mshrMissLatency::total  39635956500                       # number of ReadReq MSHR miss ticks (Tick)
system.cpu.dcache.ReadReq.mshrMissRate::switch_cpus.data     0.081364                       # mshr miss rate for ReadReq accesses (Ratio)
system.cpu.dcache.ReadReq.mshrMissRate::total     0.081364                       # mshr miss rate for ReadReq accesses (Ratio)
system.cpu.dcache.ReadReq.avgMshrMissLatency::switch_cpus.data 21557.753642                       # average ReadReq mshr miss latency ((Tick/Count))
system.cpu.dcache.ReadReq.avgMshrMissLatency::total 21557.753642                       # average ReadReq mshr miss latency ((Tick/Count))
system.cpu.dcache.WriteReq.hits::switch_cpus.data      5644726                       # number of WriteReq hits (Count)
system.cpu.dcache.WriteReq.hits::total        5644726                       # number of WriteReq hits (Count)
system.cpu.dcache.WriteReq.misses::switch_cpus.data        11166                       # number of WriteReq misses (Count)
system.cpu.dcache.WriteReq.misses::total        11166                       # number of WriteReq misses (Count)
system.cpu.dcache.WriteReq.missLatency::switch_cpus.data     37717500                       # number of WriteReq miss ticks (Tick)
system.cpu.dcache.WriteReq.missLatency::total     37717500                       # number of WriteReq miss ticks (Tick)
system.cpu.dcache.WriteReq.accesses::switch_cpus.data      5655892                       # number of WriteReq accesses(hits+misses) (Count)
system.cpu.dcache.WriteReq.accesses::total      5655892                       # number of WriteReq accesses(hits+misses) (Count)
system.cpu.dcache.WriteReq.missRate::switch_cpus.data     0.001974                       # miss rate for WriteReq accesses (Ratio)
system.cpu.dcache.WriteReq.missRate::total     0.001974                       # miss rate for WriteReq accesses (Ratio)
system.cpu.dcache.WriteReq.avgMissLatency::switch_cpus.data  3377.888232                       # average WriteReq miss latency ((Tick/Count))
system.cpu.dcache.WriteReq.avgMissLatency::total  3377.888232                       # average WriteReq miss latency ((Tick/Count))
system.cpu.dcache.WriteReq.mshrHits::switch_cpus.data         3426                       # number of WriteReq MSHR hits (Count)
system.cpu.dcache.WriteReq.mshrHits::total         3426                       # number of WriteReq MSHR hits (Count)
system.cpu.dcache.WriteReq.mshrMisses::switch_cpus.data         7740                       # number of WriteReq MSHR misses (Count)
system.cpu.dcache.WriteReq.mshrMisses::total         7740                       # number of WriteReq MSHR misses (Count)
system.cpu.dcache.WriteReq.mshrMissLatency::switch_cpus.data     19808500                       # number of WriteReq MSHR miss ticks (Tick)
system.cpu.dcache.WriteReq.mshrMissLatency::total     19808500                       # number of WriteReq MSHR miss ticks (Tick)
system.cpu.dcache.WriteReq.mshrMissRate::switch_cpus.data     0.001368                       # mshr miss rate for WriteReq accesses (Ratio)
system.cpu.dcache.WriteReq.mshrMissRate::total     0.001368                       # mshr miss rate for WriteReq accesses (Ratio)
system.cpu.dcache.WriteReq.avgMshrMissLatency::switch_cpus.data  2559.237726                       # average WriteReq mshr miss latency ((Tick/Count))
system.cpu.dcache.WriteReq.avgMshrMissLatency::total  2559.237726                       # average WriteReq mshr miss latency ((Tick/Count))
system.cpu.dcache.power_state.pwrStateResidencyTicks::UNDEFINED 1427426685500                       # Cumulative time (in ticks) in various power states (Tick)
system.cpu.dcache.tags.tagsInUse                  256                       # Average ticks per tags in use ((Tick/Count))
system.cpu.dcache.tags.totalRefs             28183719                       # Total number of references to valid blocks. (Count)
system.cpu.dcache.tags.sampledRefs            1846590                       # Sample count of references to valid blocks. (Count)
system.cpu.dcache.tags.avgRefs              15.262575                       # Average number of references to valid blocks. ((Count/Count))
system.cpu.dcache.tags.warmupTick                   0                       # The tick when the warmup percentage was hit. (Tick)
system.cpu.dcache.tags.occupancies::cpu.data     0.196821                       # Average occupied blocks per tick, per requestor ((Count/Tick))
system.cpu.dcache.tags.occupancies::switch_cpus.data   255.803179                       # Average occupied blocks per tick, per requestor ((Count/Tick))
system.cpu.dcache.tags.avgOccs::cpu.data     0.000769                       # Average percentage of cache occupancy ((Ratio/Tick))
system.cpu.dcache.tags.avgOccs::switch_cpus.data     0.999231                       # Average percentage of cache occupancy ((Ratio/Tick))
system.cpu.dcache.tags.avgOccs::total               1                       # Average percentage of cache occupancy ((Ratio/Tick))
system.cpu.dcache.tags.occupanciesTaskId::1024          256                       # Occupied blocks per task id (Count)
system.cpu.dcache.tags.ageTaskId_1024::0           11                       # Occupied blocks per task id, per block age (Count)
system.cpu.dcache.tags.ageTaskId_1024::1           70                       # Occupied blocks per task id, per block age (Count)
system.cpu.dcache.tags.ageTaskId_1024::2          175                       # Occupied blocks per task id, per block age (Count)
system.cpu.dcache.tags.ratioOccsTaskId::1024            1                       # Ratio of occupied blocks and all blocks, per task id (Ratio)
system.cpu.dcache.tags.tagAccesses           30099387                       # Number of tag accesses (Count)
system.cpu.dcache.tags.dataAccesses          30099387                       # Number of data accesses (Count)
system.cpu.dcache.tags.power_state.pwrStateResidencyTicks::UNDEFINED 1427426685500                       # Cumulative time (in ticks) in various power states (Tick)
system.cpu.dtb_walker_cache.blockedCycles::no_mshrs            0                       # number of cycles access was blocked (Cycle)
system.cpu.dtb_walker_cache.blockedCycles::no_targets            0                       # number of cycles access was blocked (Cycle)
system.cpu.dtb_walker_cache.blockedCauses::no_mshrs            0                       # number of times access was blocked (Count)
system.cpu.dtb_walker_cache.blockedCauses::no_targets            0                       # number of times access was blocked (Count)
system.cpu.dtb_walker_cache.avgBlocked::no_mshrs          nan                       # average number of cycles each access was blocked ((Cycle/Count))
system.cpu.dtb_walker_cache.avgBlocked::no_targets          nan                       # average number of cycles each access was blocked ((Cycle/Count))
system.cpu.dtb_walker_cache.replacements            0                       # number of replacements (Count)
system.cpu.dtb_walker_cache.power_state.pwrStateResidencyTicks::UNDEFINED 1427426685500                       # Cumulative time (in ticks) in various power states (Tick)
system.cpu.dtb_walker_cache.tags.tagsInUse            0                       # Average ticks per tags in use ((Tick/Count))
system.cpu.dtb_walker_cache.tags.totalRefs            0                       # Total number of references to valid blocks. (Count)
system.cpu.dtb_walker_cache.tags.sampledRefs            0                       # Sample count of references to valid blocks. (Count)
system.cpu.dtb_walker_cache.tags.avgRefs          nan                       # Average number of references to valid blocks. ((Count/Count))
system.cpu.dtb_walker_cache.tags.warmupTick            0                       # The tick when the warmup percentage was hit. (Tick)
system.cpu.dtb_walker_cache.tags.tagAccesses            0                       # Number of tag accesses (Count)
system.cpu.dtb_walker_cache.tags.dataAccesses            0                       # Number of data accesses (Count)
system.cpu.dtb_walker_cache.tags.power_state.pwrStateResidencyTicks::UNDEFINED 1427426685500                       # Cumulative time (in ticks) in various power states (Tick)
system.cpu.exec_context.thread_0.numInsts            0                       # Number of instructions committed (Count)
system.cpu.exec_context.thread_0.numOps             0                       # Number of ops (including micro ops) committed (Count)
system.cpu.exec_context.thread_0.numIntAluAccesses            0                       # Number of integer alu accesses (Count)
system.cpu.exec_context.thread_0.numFpAluAccesses            0                       # Number of float alu accesses (Count)
system.cpu.exec_context.thread_0.numVecAluAccesses            0                       # Number of vector alu accesses (Count)
system.cpu.exec_context.thread_0.numCallsReturns            0                       # Number of times a function call or return occured (Count)
system.cpu.exec_context.thread_0.numCondCtrlInsts            0                       # Number of instructions that are conditional controls (Count)
system.cpu.exec_context.thread_0.numIntInsts            0                       # Number of integer instructions (Count)
system.cpu.exec_context.thread_0.numFpInsts            0                       # Number of float instructions (Count)
system.cpu.exec_context.thread_0.numVecInsts            0                       # Number of vector instructions (Count)
system.cpu.exec_context.thread_0.numIntRegReads            0                       # Number of times the integer registers were read (Count)
system.cpu.exec_context.thread_0.numIntRegWrites            0                       # Number of times the integer registers were written (Count)
system.cpu.exec_context.thread_0.numFpRegReads            0                       # Number of times the floating registers were read (Count)
system.cpu.exec_context.thread_0.numFpRegWrites            0                       # Number of times the floating registers were written (Count)
system.cpu.exec_context.thread_0.numVecRegReads            0                       # Number of times the vector registers were read (Count)
system.cpu.exec_context.thread_0.numVecRegWrites            0                       # Number of times the vector registers were written (Count)
system.cpu.exec_context.thread_0.numVecPredRegReads            0                       # Number of times the predicate registers were read (Count)
system.cpu.exec_context.thread_0.numVecPredRegWrites            0                       # Number of times the predicate registers were written (Count)
system.cpu.exec_context.thread_0.numMiscRegReads            0                       # Number of times the Misc registers were read (Count)
system.cpu.exec_context.thread_0.numMiscRegWrites            0                       # Number of times the Misc registers were written (Count)
system.cpu.exec_context.thread_0.numMemRefs            0                       # Number of memory refs (Count)
system.cpu.exec_context.thread_0.numLoadInsts            0                       # Number of load instructions (Count)
system.cpu.exec_context.thread_0.numStoreInsts            0                       # Number of store instructions (Count)
system.cpu.exec_context.thread_0.numIdleCycles            0                       # Number of idle cycles (Cycle)
system.cpu.exec_context.thread_0.numBusyCycles            0                       # Number of busy cycles (Cycle)
system.cpu.exec_context.thread_0.notIdleFraction            1                       # Percentage of non-idle cycles (Ratio)
system.cpu.exec_context.thread_0.idleFraction            0                       # Percentage of idle cycles (Ratio)
system.cpu.exec_context.thread_0.statExecutedInstType::No_OpClass            0                       # Class of executed instruction. (Count)
system.cpu.exec_context.thread_0.statExecutedInstType::IntAlu            0                       # Class of executed instruction. (Count)
system.cpu.exec_context.thread_0.statExecutedInstType::IntMult            0                       # Class of executed instruction. (Count)
system.cpu.exec_context.thread_0.statExecutedInstType::IntDiv            0                       # Class of executed instruction. (Count)
system.cpu.exec_context.thread_0.statExecutedInstType::FloatAdd            0                       # Class of executed instruction. (Count)
system.cpu.exec_context.thread_0.statExecutedInstType::FloatCmp            0                       # Class of executed instruction. (Count)
system.cpu.exec_context.thread_0.statExecutedInstType::FloatCvt            0                       # Class of executed instruction. (Count)
system.cpu.exec_context.thread_0.statExecutedInstType::FloatMult            0                       # Class of executed instruction. (Count)
system.cpu.exec_context.thread_0.statExecutedInstType::FloatMultAcc            0                       # Class of executed instruction. (Count)
system.cpu.exec_context.thread_0.statExecutedInstType::FloatDiv            0                       # Class of executed instruction. (Count)
system.cpu.exec_context.thread_0.statExecutedInstType::FloatMisc            0                       # Class of executed instruction. (Count)
system.cpu.exec_context.thread_0.statExecutedInstType::FloatSqrt            0                       # Class of executed instruction. (Count)
system.cpu.exec_context.thread_0.statExecutedInstType::SimdAdd            0                       # Class of executed instruction. (Count)
system.cpu.exec_context.thread_0.statExecutedInstType::SimdAddAcc            0                       # Class of executed instruction. (Count)
system.cpu.exec_context.thread_0.statExecutedInstType::SimdAlu            0                       # Class of executed instruction. (Count)
system.cpu.exec_context.thread_0.statExecutedInstType::SimdCmp            0                       # Class of executed instruction. (Count)
system.cpu.exec_context.thread_0.statExecutedInstType::SimdCvt            0                       # Class of executed instruction. (Count)
system.cpu.exec_context.thread_0.statExecutedInstType::SimdMisc            0                       # Class of executed instruction. (Count)
system.cpu.exec_context.thread_0.statExecutedInstType::SimdMult            0                       # Class of executed instruction. (Count)
system.cpu.exec_context.thread_0.statExecutedInstType::SimdMultAcc            0                       # Class of executed instruction. (Count)
system.cpu.exec_context.thread_0.statExecutedInstType::SimdShift            0                       # Class of executed instruction. (Count)
system.cpu.exec_context.thread_0.statExecutedInstType::SimdShiftAcc            0                       # Class of executed instruction. (Count)
system.cpu.exec_context.thread_0.statExecutedInstType::SimdDiv            0                       # Class of executed instruction. (Count)
system.cpu.exec_context.thread_0.statExecutedInstType::SimdSqrt            0                       # Class of executed instruction. (Count)
system.cpu.exec_context.thread_0.statExecutedInstType::SimdFloatAdd            0                       # Class of executed instruction. (Count)
system.cpu.exec_context.thread_0.statExecutedInstType::SimdFloatAlu            0                       # Class of executed instruction. (Count)
system.cpu.exec_context.thread_0.statExecutedInstType::SimdFloatCmp            0                       # Class of executed instruction. (Count)
system.cpu.exec_context.thread_0.statExecutedInstType::SimdFloatCvt            0                       # Class of executed instruction. (Count)
system.cpu.exec_context.thread_0.statExecutedInstType::SimdFloatDiv            0                       # Class of executed instruction. (Count)
system.cpu.exec_context.thread_0.statExecutedInstType::SimdFloatMisc            0                       # Class of executed instruction. (Count)
system.cpu.exec_context.thread_0.statExecutedInstType::SimdFloatMult            0                       # Class of executed instruction. (Count)
system.cpu.exec_context.thread_0.statExecutedInstType::SimdFloatMultAcc            0                       # Class of executed instruction. (Count)
system.cpu.exec_context.thread_0.statExecutedInstType::SimdFloatSqrt            0                       # Class of executed instruction. (Count)
system.cpu.exec_context.thread_0.statExecutedInstType::SimdReduceAdd            0                       # Class of executed instruction. (Count)
system.cpu.exec_context.thread_0.statExecutedInstType::SimdReduceAlu            0                       # Class of executed instruction. (Count)
system.cpu.exec_context.thread_0.statExecutedInstType::SimdReduceCmp            0                       # Class of executed instruction. (Count)
system.cpu.exec_context.thread_0.statExecutedInstType::SimdFloatReduceAdd            0                       # Class of executed instruction. (Count)
system.cpu.exec_context.thread_0.statExecutedInstType::SimdFloatReduceCmp            0                       # Class of executed instruction. (Count)
system.cpu.exec_context.thread_0.statExecutedInstType::SimdAes            0                       # Class of executed instruction. (Count)
system.cpu.exec_context.thread_0.statExecutedInstType::SimdAesMix            0                       # Class of executed instruction. (Count)
system.cpu.exec_context.thread_0.statExecutedInstType::SimdSha1Hash            0                       # Class of executed instruction. (Count)
system.cpu.exec_context.thread_0.statExecutedInstType::SimdSha1Hash2            0                       # Class of executed instruction. (Count)
system.cpu.exec_context.thread_0.statExecutedInstType::SimdSha256Hash            0                       # Class of executed instruction. (Count)
system.cpu.exec_context.thread_0.statExecutedInstType::SimdSha256Hash2            0                       # Class of executed instruction. (Count)
system.cpu.exec_context.thread_0.statExecutedInstType::SimdShaSigma2            0                       # Class of executed instruction. (Count)
system.cpu.exec_context.thread_0.statExecutedInstType::SimdShaSigma3            0                       # Class of executed instruction. (Count)
system.cpu.exec_context.thread_0.statExecutedInstType::SimdPredAlu            0                       # Class of executed instruction. (Count)
system.cpu.exec_context.thread_0.statExecutedInstType::MemRead            0                       # Class of executed instruction. (Count)
system.cpu.exec_context.thread_0.statExecutedInstType::MemWrite            0                       # Class of executed instruction. (Count)
system.cpu.exec_context.thread_0.statExecutedInstType::FloatMemRead            0                       # Class of executed instruction. (Count)
system.cpu.exec_context.thread_0.statExecutedInstType::FloatMemWrite            0                       # Class of executed instruction. (Count)
system.cpu.exec_context.thread_0.statExecutedInstType::IprAccess            0                       # Class of executed instruction. (Count)
system.cpu.exec_context.thread_0.statExecutedInstType::InstPrefetch            0                       # Class of executed instruction. (Count)
system.cpu.exec_context.thread_0.statExecutedInstType::total            0                       # Class of executed instruction. (Count)
system.cpu.icache.demandHits::switch_cpus.inst     28508100                       # number of demand (read+write) hits (Count)
system.cpu.icache.demandHits::total          28508100                       # number of demand (read+write) hits (Count)
system.cpu.icache.overallHits::switch_cpus.inst     28508100                       # number of overall hits (Count)
system.cpu.icache.overallHits::total         28508100                       # number of overall hits (Count)
system.cpu.icache.demandMisses::switch_cpus.inst      2686163                       # number of demand (read+write) misses (Count)
system.cpu.icache.demandMisses::total         2686163                       # number of demand (read+write) misses (Count)
system.cpu.icache.overallMisses::switch_cpus.inst      2686163                       # number of overall misses (Count)
system.cpu.icache.overallMisses::total        2686163                       # number of overall misses (Count)
system.cpu.icache.demandMissLatency::switch_cpus.inst  40296924500                       # number of demand (read+write) miss ticks (Tick)
system.cpu.icache.demandMissLatency::total  40296924500                       # number of demand (read+write) miss ticks (Tick)
system.cpu.icache.overallMissLatency::switch_cpus.inst  40296924500                       # number of overall miss ticks (Tick)
system.cpu.icache.overallMissLatency::total  40296924500                       # number of overall miss ticks (Tick)
system.cpu.icache.demandAccesses::switch_cpus.inst     31194263                       # number of demand (read+write) accesses (Count)
system.cpu.icache.demandAccesses::total      31194263                       # number of demand (read+write) accesses (Count)
system.cpu.icache.overallAccesses::switch_cpus.inst     31194263                       # number of overall (read+write) accesses (Count)
system.cpu.icache.overallAccesses::total     31194263                       # number of overall (read+write) accesses (Count)
system.cpu.icache.demandMissRate::switch_cpus.inst     0.086111                       # miss rate for demand accesses (Ratio)
system.cpu.icache.demandMissRate::total      0.086111                       # miss rate for demand accesses (Ratio)
system.cpu.icache.overallMissRate::switch_cpus.inst     0.086111                       # miss rate for overall accesses (Ratio)
system.cpu.icache.overallMissRate::total     0.086111                       # miss rate for overall accesses (Ratio)
system.cpu.icache.demandAvgMissLatency::switch_cpus.inst 15001.667620                       # average overall miss latency in ticks ((Tick/Count))
system.cpu.icache.demandAvgMissLatency::total 15001.667620                       # average overall miss latency in ticks ((Tick/Count))
system.cpu.icache.overallAvgMissLatency::switch_cpus.inst 15001.667620                       # average overall miss latency ((Tick/Count))
system.cpu.icache.overallAvgMissLatency::total 15001.667620                       # average overall miss latency ((Tick/Count))
system.cpu.icache.blockedCycles::no_mshrs            0                       # number of cycles access was blocked (Cycle)
system.cpu.icache.blockedCycles::no_targets            0                       # number of cycles access was blocked (Cycle)
system.cpu.icache.blockedCauses::no_mshrs            0                       # number of times access was blocked (Count)
system.cpu.icache.blockedCauses::no_targets            0                       # number of times access was blocked (Count)
system.cpu.icache.avgBlocked::no_mshrs            nan                       # average number of cycles each access was blocked ((Cycle/Count))
system.cpu.icache.avgBlocked::no_targets          nan                       # average number of cycles each access was blocked ((Cycle/Count))
system.cpu.icache.demandMshrMisses::switch_cpus.inst      2686163                       # number of demand (read+write) MSHR misses (Count)
system.cpu.icache.demandMshrMisses::total      2686163                       # number of demand (read+write) MSHR misses (Count)
system.cpu.icache.overallMshrMisses::switch_cpus.inst      2686163                       # number of overall MSHR misses (Count)
system.cpu.icache.overallMshrMisses::total      2686163                       # number of overall MSHR misses (Count)
system.cpu.icache.demandMshrMissLatency::switch_cpus.inst  37610761500                       # number of demand (read+write) MSHR miss ticks (Tick)
system.cpu.icache.demandMshrMissLatency::total  37610761500                       # number of demand (read+write) MSHR miss ticks (Tick)
system.cpu.icache.overallMshrMissLatency::switch_cpus.inst  37610761500                       # number of overall MSHR miss ticks (Tick)
system.cpu.icache.overallMshrMissLatency::total  37610761500                       # number of overall MSHR miss ticks (Tick)
system.cpu.icache.demandMshrMissRate::switch_cpus.inst     0.086111                       # mshr miss ratio for demand accesses (Ratio)
system.cpu.icache.demandMshrMissRate::total     0.086111                       # mshr miss ratio for demand accesses (Ratio)
system.cpu.icache.overallMshrMissRate::switch_cpus.inst     0.086111                       # mshr miss ratio for overall accesses (Ratio)
system.cpu.icache.overallMshrMissRate::total     0.086111                       # mshr miss ratio for overall accesses (Ratio)
system.cpu.icache.demandAvgMshrMissLatency::switch_cpus.inst 14001.667620                       # average overall mshr miss latency ((Tick/Count))
system.cpu.icache.demandAvgMshrMissLatency::total 14001.667620                       # average overall mshr miss latency ((Tick/Count))
system.cpu.icache.overallAvgMshrMissLatency::switch_cpus.inst 14001.667620                       # average overall mshr miss latency ((Tick/Count))
system.cpu.icache.overallAvgMshrMissLatency::total 14001.667620                       # average overall mshr miss latency ((Tick/Count))
system.cpu.icache.replacements                2686163                       # number of replacements (Count)
system.cpu.icache.ReadReq.hits::switch_cpus.inst     28508100                       # number of ReadReq hits (Count)
system.cpu.icache.ReadReq.hits::total        28508100                       # number of ReadReq hits (Count)
system.cpu.icache.ReadReq.misses::switch_cpus.inst      2686163                       # number of ReadReq misses (Count)
system.cpu.icache.ReadReq.misses::total       2686163                       # number of ReadReq misses (Count)
system.cpu.icache.ReadReq.missLatency::switch_cpus.inst  40296924500                       # number of ReadReq miss ticks (Tick)
system.cpu.icache.ReadReq.missLatency::total  40296924500                       # number of ReadReq miss ticks (Tick)
system.cpu.icache.ReadReq.accesses::switch_cpus.inst     31194263                       # number of ReadReq accesses(hits+misses) (Count)
system.cpu.icache.ReadReq.accesses::total     31194263                       # number of ReadReq accesses(hits+misses) (Count)
system.cpu.icache.ReadReq.missRate::switch_cpus.inst     0.086111                       # miss rate for ReadReq accesses (Ratio)
system.cpu.icache.ReadReq.missRate::total     0.086111                       # miss rate for ReadReq accesses (Ratio)
system.cpu.icache.ReadReq.avgMissLatency::switch_cpus.inst 15001.667620                       # average ReadReq miss latency ((Tick/Count))
system.cpu.icache.ReadReq.avgMissLatency::total 15001.667620                       # average ReadReq miss latency ((Tick/Count))
system.cpu.icache.ReadReq.mshrMisses::switch_cpus.inst      2686163                       # number of ReadReq MSHR misses (Count)
system.cpu.icache.ReadReq.mshrMisses::total      2686163                       # number of ReadReq MSHR misses (Count)
system.cpu.icache.ReadReq.mshrMissLatency::switch_cpus.inst  37610761500                       # number of ReadReq MSHR miss ticks (Tick)
system.cpu.icache.ReadReq.mshrMissLatency::total  37610761500                       # number of ReadReq MSHR miss ticks (Tick)
system.cpu.icache.ReadReq.mshrMissRate::switch_cpus.inst     0.086111                       # mshr miss rate for ReadReq accesses (Ratio)
system.cpu.icache.ReadReq.mshrMissRate::total     0.086111                       # mshr miss rate for ReadReq accesses (Ratio)
system.cpu.icache.ReadReq.avgMshrMissLatency::switch_cpus.inst 14001.667620                       # average ReadReq mshr miss latency ((Tick/Count))
system.cpu.icache.ReadReq.avgMshrMissLatency::total 14001.667620                       # average ReadReq mshr miss latency ((Tick/Count))
system.cpu.icache.power_state.pwrStateResidencyTicks::UNDEFINED 1427426685500                       # Cumulative time (in ticks) in various power states (Tick)
system.cpu.icache.tags.tagsInUse                  256                       # Average ticks per tags in use ((Tick/Count))
system.cpu.icache.tags.totalRefs           1457376952                       # Total number of references to valid blocks. (Count)
system.cpu.icache.tags.sampledRefs            2686419                       # Sample count of references to valid blocks. (Count)
system.cpu.icache.tags.avgRefs             542.498006                       # Average number of references to valid blocks. ((Count/Count))
system.cpu.icache.tags.warmupTick                   0                       # The tick when the warmup percentage was hit. (Tick)
system.cpu.icache.tags.occupancies::cpu.inst   236.039581                       # Average occupied blocks per tick, per requestor ((Count/Tick))
system.cpu.icache.tags.occupancies::switch_cpus.inst    19.960419                       # Average occupied blocks per tick, per requestor ((Count/Tick))
system.cpu.icache.tags.avgOccs::cpu.inst     0.922030                       # Average percentage of cache occupancy ((Ratio/Tick))
system.cpu.icache.tags.avgOccs::switch_cpus.inst     0.077970                       # Average percentage of cache occupancy ((Ratio/Tick))
system.cpu.icache.tags.avgOccs::total               1                       # Average percentage of cache occupancy ((Ratio/Tick))
system.cpu.icache.tags.occupanciesTaskId::1024          256                       # Occupied blocks per task id (Count)
system.cpu.icache.tags.ageTaskId_1024::0            5                       # Occupied blocks per task id, per block age (Count)
system.cpu.icache.tags.ageTaskId_1024::4          251                       # Occupied blocks per task id, per block age (Count)
system.cpu.icache.tags.ratioOccsTaskId::1024            1                       # Ratio of occupied blocks and all blocks, per task id (Ratio)
system.cpu.icache.tags.tagAccesses           33880426                       # Number of tag accesses (Count)
system.cpu.icache.tags.dataAccesses          33880426                       # Number of data accesses (Count)
system.cpu.icache.tags.power_state.pwrStateResidencyTicks::UNDEFINED 1427426685500                       # Cumulative time (in ticks) in various power states (Tick)
system.cpu.interrupts.clk_domain.clock           8000                       # Clock period in ticks (Tick)
system.cpu.itb_walker_cache.blockedCycles::no_mshrs            0                       # number of cycles access was blocked (Cycle)
system.cpu.itb_walker_cache.blockedCycles::no_targets            0                       # number of cycles access was blocked (Cycle)
system.cpu.itb_walker_cache.blockedCauses::no_mshrs            0                       # number of times access was blocked (Count)
system.cpu.itb_walker_cache.blockedCauses::no_targets            0                       # number of times access was blocked (Count)
system.cpu.itb_walker_cache.avgBlocked::no_mshrs          nan                       # average number of cycles each access was blocked ((Cycle/Count))
system.cpu.itb_walker_cache.avgBlocked::no_targets          nan                       # average number of cycles each access was blocked ((Cycle/Count))
system.cpu.itb_walker_cache.replacements            0                       # number of replacements (Count)
system.cpu.itb_walker_cache.power_state.pwrStateResidencyTicks::UNDEFINED 1427426685500                       # Cumulative time (in ticks) in various power states (Tick)
system.cpu.itb_walker_cache.tags.tagsInUse            0                       # Average ticks per tags in use ((Tick/Count))
system.cpu.itb_walker_cache.tags.totalRefs            0                       # Total number of references to valid blocks. (Count)
system.cpu.itb_walker_cache.tags.sampledRefs            0                       # Sample count of references to valid blocks. (Count)
system.cpu.itb_walker_cache.tags.avgRefs          nan                       # Average number of references to valid blocks. ((Count/Count))
system.cpu.itb_walker_cache.tags.warmupTick            0                       # The tick when the warmup percentage was hit. (Tick)
system.cpu.itb_walker_cache.tags.tagAccesses            0                       # Number of tag accesses (Count)
system.cpu.itb_walker_cache.tags.dataAccesses            0                       # Number of data accesses (Count)
system.cpu.itb_walker_cache.tags.power_state.pwrStateResidencyTicks::UNDEFINED 1427426685500                       # Cumulative time (in ticks) in various power states (Tick)
system.cpu.mmu.dtb.rdAccesses                       0                       # TLB accesses on read requests (Count)
system.cpu.mmu.dtb.wrAccesses                       0                       # TLB accesses on write requests (Count)
system.cpu.mmu.dtb.rdMisses                         0                       # TLB misses on read requests (Count)
system.cpu.mmu.dtb.wrMisses                         0                       # TLB misses on write requests (Count)
system.cpu.mmu.dtb.walker.power_state.pwrStateResidencyTicks::UNDEFINED 1427426685500                       # Cumulative time (in ticks) in various power states (Tick)
system.cpu.mmu.itb.rdAccesses                       0                       # TLB accesses on read requests (Count)
system.cpu.mmu.itb.wrAccesses                       0                       # TLB accesses on write requests (Count)
system.cpu.mmu.itb.rdMisses                         0                       # TLB misses on read requests (Count)
system.cpu.mmu.itb.wrMisses                         0                       # TLB misses on write requests (Count)
system.cpu.mmu.itb.walker.power_state.pwrStateResidencyTicks::UNDEFINED 1427426685500                       # Cumulative time (in ticks) in various power states (Tick)
system.cpu.power_state.pwrStateResidencyTicks::OFF 211163943500                       # Cumulative time (in ticks) in various power states (Tick)
system.cpu.thread_0.numInsts                        0                       # Number of Instructions committed (Count)
system.cpu.thread_0.numOps                          0                       # Number of Ops committed (Count)
system.cpu.thread_0.numMemRefs                      0                       # Number of Memory References (Count)
system.cpu.workload.numSyscalls                     0                       # Number of system calls (Count)
system.cpu_clk_domain.clock                       500                       # Clock period in ticks (Tick)
system.cpu_voltage_domain.voltage                   1                       # Voltage in Volts (Volt)
system.l2.demandHits::switch_cpus.data        1678139                       # number of demand (read+write) hits (Count)
system.l2.demandHits::total                   1678139                       # number of demand (read+write) hits (Count)
system.l2.overallHits::switch_cpus.data       1678139                       # number of overall hits (Count)
system.l2.overallHits::total                  1678139                       # number of overall hits (Count)
system.l2.demandMisses::switch_cpus.inst      2686163                       # number of demand (read+write) misses (Count)
system.l2.demandMisses::switch_cpus.data       168195                       # number of demand (read+write) misses (Count)
system.l2.demandMisses::total                 2854358                       # number of demand (read+write) misses (Count)
system.l2.overallMisses::switch_cpus.inst      2686163                       # number of overall misses (Count)
system.l2.overallMisses::switch_cpus.data       168195                       # number of overall misses (Count)
system.l2.overallMisses::total                2854358                       # number of overall misses (Count)
system.l2.demandMissLatency::switch_cpus.inst  33581517000                       # number of demand (read+write) miss ticks (Tick)
system.l2.demandMissLatency::switch_cpus.data  34938842500                       # number of demand (read+write) miss ticks (Tick)
system.l2.demandMissLatency::total        68520359500                       # number of demand (read+write) miss ticks (Tick)
system.l2.overallMissLatency::switch_cpus.inst  33581517000                       # number of overall miss ticks (Tick)
system.l2.overallMissLatency::switch_cpus.data  34938842500                       # number of overall miss ticks (Tick)
system.l2.overallMissLatency::total       68520359500                       # number of overall miss ticks (Tick)
system.l2.demandAccesses::switch_cpus.inst      2686163                       # number of demand (read+write) accesses (Count)
system.l2.demandAccesses::switch_cpus.data      1846334                       # number of demand (read+write) accesses (Count)
system.l2.demandAccesses::total               4532497                       # number of demand (read+write) accesses (Count)
system.l2.overallAccesses::switch_cpus.inst      2686163                       # number of overall (read+write) accesses (Count)
system.l2.overallAccesses::switch_cpus.data      1846334                       # number of overall (read+write) accesses (Count)
system.l2.overallAccesses::total              4532497                       # number of overall (read+write) accesses (Count)
system.l2.demandMissRate::switch_cpus.inst            1                       # miss rate for demand accesses (Ratio)
system.l2.demandMissRate::switch_cpus.data     0.091097                       # miss rate for demand accesses (Ratio)
system.l2.demandMissRate::total              0.629754                       # miss rate for demand accesses (Ratio)
system.l2.overallMissRate::switch_cpus.inst            1                       # miss rate for overall accesses (Ratio)
system.l2.overallMissRate::switch_cpus.data     0.091097                       # miss rate for overall accesses (Ratio)
system.l2.overallMissRate::total             0.629754                       # miss rate for overall accesses (Ratio)
system.l2.demandAvgMissLatency::switch_cpus.inst 12501.667620                       # average overall miss latency in ticks ((Tick/Count))
system.l2.demandAvgMissLatency::switch_cpus.data 207728.187520                       # average overall miss latency in ticks ((Tick/Count))
system.l2.demandAvgMissLatency::total    24005.524009                       # average overall miss latency in ticks ((Tick/Count))
system.l2.overallAvgMissLatency::switch_cpus.inst 12501.667620                       # average overall miss latency ((Tick/Count))
system.l2.overallAvgMissLatency::switch_cpus.data 207728.187520                       # average overall miss latency ((Tick/Count))
system.l2.overallAvgMissLatency::total   24005.524009                       # average overall miss latency ((Tick/Count))
system.l2.blockedCycles::no_mshrs                   0                       # number of cycles access was blocked (Cycle)
system.l2.blockedCycles::no_targets                 0                       # number of cycles access was blocked (Cycle)
system.l2.blockedCauses::no_mshrs                   0                       # number of times access was blocked (Count)
system.l2.blockedCauses::no_targets                 0                       # number of times access was blocked (Count)
system.l2.avgBlocked::no_mshrs                    nan                       # average number of cycles each access was blocked ((Cycle/Count))
system.l2.avgBlocked::no_targets                  nan                       # average number of cycles each access was blocked ((Cycle/Count))
system.l2.demandMshrMisses::switch_cpus.inst      2686163                       # number of demand (read+write) MSHR misses (Count)
system.l2.demandMshrMisses::switch_cpus.data       168195                       # number of demand (read+write) MSHR misses (Count)
system.l2.demandMshrMisses::total             2854358                       # number of demand (read+write) MSHR misses (Count)
system.l2.overallMshrMisses::switch_cpus.inst      2686163                       # number of overall MSHR misses (Count)
system.l2.overallMshrMisses::switch_cpus.data       168195                       # number of overall MSHR misses (Count)
system.l2.overallMshrMisses::total            2854358                       # number of overall MSHR misses (Count)
system.l2.demandMshrMissLatency::switch_cpus.inst  32238435500                       # number of demand (read+write) MSHR miss ticks (Tick)
system.l2.demandMshrMissLatency::switch_cpus.data  34854745000                       # number of demand (read+write) MSHR miss ticks (Tick)
system.l2.demandMshrMissLatency::total    67093180500                       # number of demand (read+write) MSHR miss ticks (Tick)
system.l2.overallMshrMissLatency::switch_cpus.inst  32238435500                       # number of overall MSHR miss ticks (Tick)
system.l2.overallMshrMissLatency::switch_cpus.data  34854745000                       # number of overall MSHR miss ticks (Tick)
system.l2.overallMshrMissLatency::total   67093180500                       # number of overall MSHR miss ticks (Tick)
system.l2.demandMshrMissRate::switch_cpus.inst            1                       # mshr miss ratio for demand accesses (Ratio)
system.l2.demandMshrMissRate::switch_cpus.data     0.091097                       # mshr miss ratio for demand accesses (Ratio)
system.l2.demandMshrMissRate::total          0.629754                       # mshr miss ratio for demand accesses (Ratio)
system.l2.overallMshrMissRate::switch_cpus.inst            1                       # mshr miss ratio for overall accesses (Ratio)
system.l2.overallMshrMissRate::switch_cpus.data     0.091097                       # mshr miss ratio for overall accesses (Ratio)
system.l2.overallMshrMissRate::total         0.629754                       # mshr miss ratio for overall accesses (Ratio)
system.l2.demandAvgMshrMissLatency::switch_cpus.inst 12001.667620                       # average overall mshr miss latency ((Tick/Count))
system.l2.demandAvgMshrMissLatency::switch_cpus.data 207228.187520                       # average overall mshr miss latency ((Tick/Count))
system.l2.demandAvgMshrMissLatency::total 23505.524009                       # average overall mshr miss latency ((Tick/Count))
system.l2.overallAvgMshrMissLatency::switch_cpus.inst 12001.667620                       # average overall mshr miss latency ((Tick/Count))
system.l2.overallAvgMshrMissLatency::switch_cpus.data 207228.187520                       # average overall mshr miss latency ((Tick/Count))
system.l2.overallAvgMshrMissLatency::total 23505.524009                       # average overall mshr miss latency ((Tick/Count))
system.l2.replacements                         168195                       # number of replacements (Count)
system.l2.CleanEvict.mshrMisses::writebacks      2686163                       # number of CleanEvict MSHR misses (Count)
system.l2.CleanEvict.mshrMisses::total        2686163                       # number of CleanEvict MSHR misses (Count)
system.l2.CleanEvict.mshrMissRate::writebacks          inf                       # mshr miss rate for CleanEvict accesses (Ratio)
system.l2.CleanEvict.mshrMissRate::total          inf                       # mshr miss rate for CleanEvict accesses (Ratio)
system.l2.ReadCleanReq.misses::switch_cpus.inst      2686163                       # number of ReadCleanReq misses (Count)
system.l2.ReadCleanReq.misses::total          2686163                       # number of ReadCleanReq misses (Count)
system.l2.ReadCleanReq.missLatency::switch_cpus.inst  33581517000                       # number of ReadCleanReq miss ticks (Tick)
system.l2.ReadCleanReq.missLatency::total  33581517000                       # number of ReadCleanReq miss ticks (Tick)
system.l2.ReadCleanReq.accesses::switch_cpus.inst      2686163                       # number of ReadCleanReq accesses(hits+misses) (Count)
system.l2.ReadCleanReq.accesses::total        2686163                       # number of ReadCleanReq accesses(hits+misses) (Count)
system.l2.ReadCleanReq.missRate::switch_cpus.inst            1                       # miss rate for ReadCleanReq accesses (Ratio)
system.l2.ReadCleanReq.missRate::total              1                       # miss rate for ReadCleanReq accesses (Ratio)
system.l2.ReadCleanReq.avgMissLatency::switch_cpus.inst 12501.667620                       # average ReadCleanReq miss latency ((Tick/Count))
system.l2.ReadCleanReq.avgMissLatency::total 12501.667620                       # average ReadCleanReq miss latency ((Tick/Count))
system.l2.ReadCleanReq.mshrMisses::switch_cpus.inst      2686163                       # number of ReadCleanReq MSHR misses (Count)
system.l2.ReadCleanReq.mshrMisses::total      2686163                       # number of ReadCleanReq MSHR misses (Count)
system.l2.ReadCleanReq.mshrMissLatency::switch_cpus.inst  32238435500                       # number of ReadCleanReq MSHR miss ticks (Tick)
system.l2.ReadCleanReq.mshrMissLatency::total  32238435500                       # number of ReadCleanReq MSHR miss ticks (Tick)
system.l2.ReadCleanReq.mshrMissRate::switch_cpus.inst            1                       # mshr miss rate for ReadCleanReq accesses (Ratio)
system.l2.ReadCleanReq.mshrMissRate::total            1                       # mshr miss rate for ReadCleanReq accesses (Ratio)
system.l2.ReadCleanReq.avgMshrMissLatency::switch_cpus.inst 12001.667620                       # average ReadCleanReq mshr miss latency ((Tick/Count))
system.l2.ReadCleanReq.avgMshrMissLatency::total 12001.667620                       # average ReadCleanReq mshr miss latency ((Tick/Count))
system.l2.ReadExReq.hits::switch_cpus.data         7755                       # number of ReadExReq hits (Count)
system.l2.ReadExReq.hits::total                  7755                       # number of ReadExReq hits (Count)
system.l2.ReadExReq.accesses::switch_cpus.data         7755                       # number of ReadExReq accesses(hits+misses) (Count)
system.l2.ReadExReq.accesses::total              7755                       # number of ReadExReq accesses(hits+misses) (Count)
system.l2.ReadSharedReq.hits::switch_cpus.data      1670384                       # number of ReadSharedReq hits (Count)
system.l2.ReadSharedReq.hits::total           1670384                       # number of ReadSharedReq hits (Count)
system.l2.ReadSharedReq.misses::switch_cpus.data       168195                       # number of ReadSharedReq misses (Count)
system.l2.ReadSharedReq.misses::total          168195                       # number of ReadSharedReq misses (Count)
system.l2.ReadSharedReq.missLatency::switch_cpus.data  34938842500                       # number of ReadSharedReq miss ticks (Tick)
system.l2.ReadSharedReq.missLatency::total  34938842500                       # number of ReadSharedReq miss ticks (Tick)
system.l2.ReadSharedReq.accesses::switch_cpus.data      1838579                       # number of ReadSharedReq accesses(hits+misses) (Count)
system.l2.ReadSharedReq.accesses::total       1838579                       # number of ReadSharedReq accesses(hits+misses) (Count)
system.l2.ReadSharedReq.missRate::switch_cpus.data     0.091481                       # miss rate for ReadSharedReq accesses (Ratio)
system.l2.ReadSharedReq.missRate::total      0.091481                       # miss rate for ReadSharedReq accesses (Ratio)
system.l2.ReadSharedReq.avgMissLatency::switch_cpus.data 207728.187520                       # average ReadSharedReq miss latency ((Tick/Count))
system.l2.ReadSharedReq.avgMissLatency::total 207728.187520                       # average ReadSharedReq miss latency ((Tick/Count))
system.l2.ReadSharedReq.mshrMisses::switch_cpus.data       168195                       # number of ReadSharedReq MSHR misses (Count)
system.l2.ReadSharedReq.mshrMisses::total       168195                       # number of ReadSharedReq MSHR misses (Count)
system.l2.ReadSharedReq.mshrMissLatency::switch_cpus.data  34854745000                       # number of ReadSharedReq MSHR miss ticks (Tick)
system.l2.ReadSharedReq.mshrMissLatency::total  34854745000                       # number of ReadSharedReq MSHR miss ticks (Tick)
system.l2.ReadSharedReq.mshrMissRate::switch_cpus.data     0.091481                       # mshr miss rate for ReadSharedReq accesses (Ratio)
system.l2.ReadSharedReq.mshrMissRate::total     0.091481                       # mshr miss rate for ReadSharedReq accesses (Ratio)
system.l2.ReadSharedReq.avgMshrMissLatency::switch_cpus.data 207228.187520                       # average ReadSharedReq mshr miss latency ((Tick/Count))
system.l2.ReadSharedReq.avgMshrMissLatency::total 207228.187520                       # average ReadSharedReq mshr miss latency ((Tick/Count))
system.l2.WritebackClean.hits::writebacks      1026935                       # number of WritebackClean hits (Count)
system.l2.WritebackClean.hits::total          1026935                       # number of WritebackClean hits (Count)
system.l2.WritebackClean.accesses::writebacks      1026935                       # number of WritebackClean accesses(hits+misses) (Count)
system.l2.WritebackClean.accesses::total      1026935                       # number of WritebackClean accesses(hits+misses) (Count)
system.l2.WritebackDirty.hits::writebacks       819399                       # number of WritebackDirty hits (Count)
system.l2.WritebackDirty.hits::total           819399                       # number of WritebackDirty hits (Count)
system.l2.WritebackDirty.accesses::writebacks       819399                       # number of WritebackDirty accesses(hits+misses) (Count)
system.l2.WritebackDirty.accesses::total       819399                       # number of WritebackDirty accesses(hits+misses) (Count)
system.l2.power_state.pwrStateResidencyTicks::UNDEFINED 1427426685500                       # Cumulative time (in ticks) in various power states (Tick)
system.l2.tags.tagsInUse                    63.978219                       # Average ticks per tags in use ((Tick/Count))
system.l2.tags.totalRefs                      1846398                       # Total number of references to valid blocks. (Count)
system.l2.tags.sampledRefs                    1846398                       # Sample count of references to valid blocks. (Count)
system.l2.tags.avgRefs                              1                       # Average number of references to valid blocks. ((Count/Count))
system.l2.tags.warmupTick                           0                       # The tick when the warmup percentage was hit. (Tick)
system.l2.tags.occupancies::writebacks      63.978219                       # Average occupied blocks per tick, per requestor ((Count/Tick))
system.l2.tags.avgOccs::writebacks           0.999660                       # Average percentage of cache occupancy ((Ratio/Tick))
system.l2.tags.avgOccs::total                0.999660                       # Average percentage of cache occupancy ((Ratio/Tick))
system.l2.tags.occupanciesTaskId::1024             64                       # Occupied blocks per task id (Count)
system.l2.tags.ageTaskId_1024::0                   11                       # Occupied blocks per task id, per block age (Count)
system.l2.tags.ageTaskId_1024::1                   53                       # Occupied blocks per task id, per block age (Count)
system.l2.tags.ratioOccsTaskId::1024                1                       # Ratio of occupied blocks and all blocks, per task id (Ratio)
system.l2.tags.tagAccesses                    1846334                       # Number of tag accesses (Count)
system.l2.tags.dataAccesses                   1846334                       # Number of data accesses (Count)
system.l2.tags.hits                           1678139                       # The number of hits in each cache size. (Count)
system.l2.tags.misses                         7386855                       # The number of misses in each cache size. (Count)
system.l2.tags.accesses                       9064994                       # The number of accesses to the FA LRU cache. (Count)
system.l2.tags.power_state.pwrStateResidencyTicks::UNDEFINED 1427426685500                       # Cumulative time (in ticks) in various power states (Tick)
system.l3.demandHits::switch_cpus.inst        2686140                       # number of demand (read+write) hits (Count)
system.l3.demandHits::switch_cpus.data            161                       # number of demand (read+write) hits (Count)
system.l3.demandHits::total                   2686301                       # number of demand (read+write) hits (Count)
system.l3.overallHits::switch_cpus.inst       2686140                       # number of overall hits (Count)
system.l3.overallHits::switch_cpus.data           161                       # number of overall hits (Count)
system.l3.overallHits::total                  2686301                       # number of overall hits (Count)
system.l3.demandMisses::switch_cpus.inst           23                       # number of demand (read+write) misses (Count)
system.l3.demandMisses::switch_cpus.data       168034                       # number of demand (read+write) misses (Count)
system.l3.demandMisses::total                  168057                       # number of demand (read+write) misses (Count)
system.l3.overallMisses::switch_cpus.inst           23                       # number of overall misses (Count)
system.l3.overallMisses::switch_cpus.data       168034                       # number of overall misses (Count)
system.l3.overallMisses::total                 168057                       # number of overall misses (Count)
system.l3.demandMissLatency::switch_cpus.inst      4721000                       # number of demand (read+write) miss ticks (Tick)
system.l3.demandMissLatency::switch_cpus.data  34600762000                       # number of demand (read+write) miss ticks (Tick)
system.l3.demandMissLatency::total        34605483000                       # number of demand (read+write) miss ticks (Tick)
system.l3.overallMissLatency::switch_cpus.inst      4721000                       # number of overall miss ticks (Tick)
system.l3.overallMissLatency::switch_cpus.data  34600762000                       # number of overall miss ticks (Tick)
system.l3.overallMissLatency::total       34605483000                       # number of overall miss ticks (Tick)
system.l3.demandAccesses::switch_cpus.inst      2686163                       # number of demand (read+write) accesses (Count)
system.l3.demandAccesses::switch_cpus.data       168195                       # number of demand (read+write) accesses (Count)
system.l3.demandAccesses::total               2854358                       # number of demand (read+write) accesses (Count)
system.l3.overallAccesses::switch_cpus.inst      2686163                       # number of overall (read+write) accesses (Count)
system.l3.overallAccesses::switch_cpus.data       168195                       # number of overall (read+write) accesses (Count)
system.l3.overallAccesses::total              2854358                       # number of overall (read+write) accesses (Count)
system.l3.demandMissRate::switch_cpus.inst     0.000009                       # miss rate for demand accesses (Ratio)
system.l3.demandMissRate::switch_cpus.data     0.999043                       # miss rate for demand accesses (Ratio)
system.l3.demandMissRate::total              0.058877                       # miss rate for demand accesses (Ratio)
system.l3.overallMissRate::switch_cpus.inst     0.000009                       # miss rate for overall accesses (Ratio)
system.l3.overallMissRate::switch_cpus.data     0.999043                       # miss rate for overall accesses (Ratio)
system.l3.overallMissRate::total             0.058877                       # miss rate for overall accesses (Ratio)
system.l3.demandAvgMissLatency::switch_cpus.inst 205260.869565                       # average overall miss latency in ticks ((Tick/Count))
system.l3.demandAvgMissLatency::switch_cpus.data 205915.243344                       # average overall miss latency in ticks ((Tick/Count))
system.l3.demandAvgMissLatency::total    205915.153787                       # average overall miss latency in ticks ((Tick/Count))
system.l3.overallAvgMissLatency::switch_cpus.inst 205260.869565                       # average overall miss latency ((Tick/Count))
system.l3.overallAvgMissLatency::switch_cpus.data 205915.243344                       # average overall miss latency ((Tick/Count))
system.l3.overallAvgMissLatency::total   205915.153787                       # average overall miss latency ((Tick/Count))
system.l3.blockedCycles::no_mshrs                   0                       # number of cycles access was blocked (Cycle)
system.l3.blockedCycles::no_targets                 0                       # number of cycles access was blocked (Cycle)
system.l3.blockedCauses::no_mshrs                   0                       # number of times access was blocked (Count)
system.l3.blockedCauses::no_targets                 0                       # number of times access was blocked (Count)
system.l3.avgBlocked::no_mshrs                    nan                       # average number of cycles each access was blocked ((Cycle/Count))
system.l3.avgBlocked::no_targets                  nan                       # average number of cycles each access was blocked ((Cycle/Count))
system.l3.demandMshrMisses::switch_cpus.inst           23                       # number of demand (read+write) MSHR misses (Count)
system.l3.demandMshrMisses::switch_cpus.data       168034                       # number of demand (read+write) MSHR misses (Count)
system.l3.demandMshrMisses::total              168057                       # number of demand (read+write) MSHR misses (Count)
system.l3.overallMshrMisses::switch_cpus.inst           23                       # number of overall MSHR misses (Count)
system.l3.overallMshrMisses::switch_cpus.data       168034                       # number of overall MSHR misses (Count)
system.l3.overallMshrMisses::total             168057                       # number of overall MSHR misses (Count)
system.l3.demandMshrMissLatency::switch_cpus.inst      4491000                       # number of demand (read+write) MSHR miss ticks (Tick)
system.l3.demandMshrMissLatency::switch_cpus.data  32920422000                       # number of demand (read+write) MSHR miss ticks (Tick)
system.l3.demandMshrMissLatency::total    32924913000                       # number of demand (read+write) MSHR miss ticks (Tick)
system.l3.overallMshrMissLatency::switch_cpus.inst      4491000                       # number of overall MSHR miss ticks (Tick)
system.l3.overallMshrMissLatency::switch_cpus.data  32920422000                       # number of overall MSHR miss ticks (Tick)
system.l3.overallMshrMissLatency::total   32924913000                       # number of overall MSHR miss ticks (Tick)
system.l3.demandMshrMissRate::switch_cpus.inst     0.000009                       # mshr miss ratio for demand accesses (Ratio)
system.l3.demandMshrMissRate::switch_cpus.data     0.999043                       # mshr miss ratio for demand accesses (Ratio)
system.l3.demandMshrMissRate::total          0.058877                       # mshr miss ratio for demand accesses (Ratio)
system.l3.overallMshrMissRate::switch_cpus.inst     0.000009                       # mshr miss ratio for overall accesses (Ratio)
system.l3.overallMshrMissRate::switch_cpus.data     0.999043                       # mshr miss ratio for overall accesses (Ratio)
system.l3.overallMshrMissRate::total         0.058877                       # mshr miss ratio for overall accesses (Ratio)
system.l3.demandAvgMshrMissLatency::switch_cpus.inst 195260.869565                       # average overall mshr miss latency ((Tick/Count))
system.l3.demandAvgMshrMissLatency::switch_cpus.data 195915.243344                       # average overall mshr miss latency ((Tick/Count))
system.l3.demandAvgMshrMissLatency::total 195915.153787                       # average overall mshr miss latency ((Tick/Count))
system.l3.overallAvgMshrMissLatency::switch_cpus.inst 195260.869565                       # average overall mshr miss latency ((Tick/Count))
system.l3.overallAvgMshrMissLatency::switch_cpus.data 195915.243344                       # average overall mshr miss latency ((Tick/Count))
system.l3.overallAvgMshrMissLatency::total 195915.153787                       # average overall mshr miss latency ((Tick/Count))
system.l3.replacements                         168057                       # number of replacements (Count)
system.l3.CleanEvict.mshrMisses::writebacks           92                       # number of CleanEvict MSHR misses (Count)
system.l3.CleanEvict.mshrMisses::total             92                       # number of CleanEvict MSHR misses (Count)
system.l3.CleanEvict.mshrMissRate::writebacks          inf                       # mshr miss rate for CleanEvict accesses (Ratio)
system.l3.CleanEvict.mshrMissRate::total          inf                       # mshr miss rate for CleanEvict accesses (Ratio)
system.l3.ReadCleanReq.hits::switch_cpus.inst      2686140                       # number of ReadCleanReq hits (Count)
system.l3.ReadCleanReq.hits::switch_cpus.data          161                       # number of ReadCleanReq hits (Count)
system.l3.ReadCleanReq.hits::total            2686301                       # number of ReadCleanReq hits (Count)
system.l3.ReadCleanReq.misses::switch_cpus.inst           23                       # number of ReadCleanReq misses (Count)
system.l3.ReadCleanReq.misses::switch_cpus.data       168034                       # number of ReadCleanReq misses (Count)
system.l3.ReadCleanReq.misses::total           168057                       # number of ReadCleanReq misses (Count)
system.l3.ReadCleanReq.missLatency::switch_cpus.inst      4721000                       # number of ReadCleanReq miss ticks (Tick)
system.l3.ReadCleanReq.missLatency::switch_cpus.data  34600762000                       # number of ReadCleanReq miss ticks (Tick)
system.l3.ReadCleanReq.missLatency::total  34605483000                       # number of ReadCleanReq miss ticks (Tick)
system.l3.ReadCleanReq.accesses::switch_cpus.inst      2686163                       # number of ReadCleanReq accesses(hits+misses) (Count)
system.l3.ReadCleanReq.accesses::switch_cpus.data       168195                       # number of ReadCleanReq accesses(hits+misses) (Count)
system.l3.ReadCleanReq.accesses::total        2854358                       # number of ReadCleanReq accesses(hits+misses) (Count)
system.l3.ReadCleanReq.missRate::switch_cpus.inst     0.000009                       # miss rate for ReadCleanReq accesses (Ratio)
system.l3.ReadCleanReq.missRate::switch_cpus.data     0.999043                       # miss rate for ReadCleanReq accesses (Ratio)
system.l3.ReadCleanReq.missRate::total       0.058877                       # miss rate for ReadCleanReq accesses (Ratio)
system.l3.ReadCleanReq.avgMissLatency::switch_cpus.inst 205260.869565                       # average ReadCleanReq miss latency ((Tick/Count))
system.l3.ReadCleanReq.avgMissLatency::switch_cpus.data 205915.243344                       # average ReadCleanReq miss latency ((Tick/Count))
system.l3.ReadCleanReq.avgMissLatency::total 205915.153787                       # average ReadCleanReq miss latency ((Tick/Count))
system.l3.ReadCleanReq.mshrMisses::switch_cpus.inst           23                       # number of ReadCleanReq MSHR misses (Count)
system.l3.ReadCleanReq.mshrMisses::switch_cpus.data       168034                       # number of ReadCleanReq MSHR misses (Count)
system.l3.ReadCleanReq.mshrMisses::total       168057                       # number of ReadCleanReq MSHR misses (Count)
system.l3.ReadCleanReq.mshrMissLatency::switch_cpus.inst      4491000                       # number of ReadCleanReq MSHR miss ticks (Tick)
system.l3.ReadCleanReq.mshrMissLatency::switch_cpus.data  32920422000                       # number of ReadCleanReq MSHR miss ticks (Tick)
system.l3.ReadCleanReq.mshrMissLatency::total  32924913000                       # number of ReadCleanReq MSHR miss ticks (Tick)
system.l3.ReadCleanReq.mshrMissRate::switch_cpus.inst     0.000009                       # mshr miss rate for ReadCleanReq accesses (Ratio)
system.l3.ReadCleanReq.mshrMissRate::switch_cpus.data     0.999043                       # mshr miss rate for ReadCleanReq accesses (Ratio)
system.l3.ReadCleanReq.mshrMissRate::total     0.058877                       # mshr miss rate for ReadCleanReq accesses (Ratio)
system.l3.ReadCleanReq.avgMshrMissLatency::switch_cpus.inst 195260.869565                       # average ReadCleanReq mshr miss latency ((Tick/Count))
system.l3.ReadCleanReq.avgMshrMissLatency::switch_cpus.data 195915.243344                       # average ReadCleanReq mshr miss latency ((Tick/Count))
system.l3.ReadCleanReq.avgMshrMissLatency::total 195915.153787                       # average ReadCleanReq mshr miss latency ((Tick/Count))
system.l3.power_state.pwrStateResidencyTicks::UNDEFINED 1427426685500                       # Cumulative time (in ticks) in various power states (Tick)
system.l3.tags.tagsInUse                         2048                       # Average ticks per tags in use ((Tick/Count))
system.l3.tags.totalRefs                     11159769                       # Total number of references to valid blocks. (Count)
system.l3.tags.sampledRefs                     170105                       # Sample count of references to valid blocks. (Count)
system.l3.tags.avgRefs                      65.605179                       # Average number of references to valid blocks. ((Count/Count))
system.l3.tags.warmupTick                           0                       # The tick when the warmup percentage was hit. (Tick)
system.l3.tags.occupancies::cpu.inst                2                       # Average occupied blocks per tick, per requestor ((Count/Tick))
system.l3.tags.occupancies::cpu.data        12.314348                       # Average occupied blocks per tick, per requestor ((Count/Tick))
system.l3.tags.occupancies::switch_cpus.inst     8.138443                       # Average occupied blocks per tick, per requestor ((Count/Tick))
system.l3.tags.occupancies::switch_cpus.data  2025.547209                       # Average occupied blocks per tick, per requestor ((Count/Tick))
system.l3.tags.avgOccs::cpu.inst             0.000977                       # Average percentage of cache occupancy ((Ratio/Tick))
system.l3.tags.avgOccs::cpu.data             0.006013                       # Average percentage of cache occupancy ((Ratio/Tick))
system.l3.tags.avgOccs::switch_cpus.inst     0.003974                       # Average percentage of cache occupancy ((Ratio/Tick))
system.l3.tags.avgOccs::switch_cpus.data     0.989037                       # Average percentage of cache occupancy ((Ratio/Tick))
system.l3.tags.avgOccs::total                       1                       # Average percentage of cache occupancy ((Ratio/Tick))
system.l3.tags.occupanciesTaskId::1024           2048                       # Occupied blocks per task id (Count)
system.l3.tags.ageTaskId_1024::0                    8                       # Occupied blocks per task id, per block age (Count)
system.l3.tags.ageTaskId_1024::1                   72                       # Occupied blocks per task id, per block age (Count)
system.l3.tags.ageTaskId_1024::2                  715                       # Occupied blocks per task id, per block age (Count)
system.l3.tags.ageTaskId_1024::3                 1243                       # Occupied blocks per task id, per block age (Count)
system.l3.tags.ageTaskId_1024::4                   10                       # Occupied blocks per task id, per block age (Count)
system.l3.tags.ratioOccsTaskId::1024                1                       # Ratio of occupied blocks and all blocks, per task id (Ratio)
system.l3.tags.tagAccesses                   23002921                       # Number of tag accesses (Count)
system.l3.tags.dataAccesses                  23002921                       # Number of data accesses (Count)
system.l3.tags.power_state.pwrStateResidencyTicks::UNDEFINED 1427426685500                       # Cumulative time (in ticks) in various power states (Tick)
system.mem_ctrls.avgPriority_switch_cpus.inst::samples        23.00                       # Average QoS priority value for accepted requests (Count)
system.mem_ctrls.avgPriority_switch_cpus.data::samples    168034.00                       # Average QoS priority value for accepted requests (Count)
[...]
system.switch_cpus.committedInstType_0::FloatCmp            0      0.00%     61.18% # Class of committed instruction (Count)
system.switch_cpus.committedInstType_0::FloatCvt            0      0.00%     61.18% # Class of committed instruction (Count)
system.switch_cpus.committedInstType_0::FloatMult            0      0.00%     61.18% # Class of committed instruction (Count)
system.switch_cpus.committedInstType_0::FloatMultAcc            0      0.00%     61.18% # Class of committed instruction (Count)
system.switch_cpus.committedInstType_0::FloatDiv            0      0.00%     61.18% # Class of committed instruction (Count)
system.switch_cpus.committedInstType_0::FloatMisc            0      0.00%     61.18% # Class of committed instruction (Count)
system.switch_cpus.committedInstType_0::FloatSqrt            0      0.00%     61.18% # Class of committed instruction (Count)
system.switch_cpus.committedInstType_0::SimdAdd            0      0.00%     61.18% # Class of committed instruction (Count)
system.switch_cpus.committedInstType_0::SimdAddAcc            0      0.00%     61.18% # Class of committed instruction (Count)
system.switch_cpus.committedInstType_0::SimdAlu      4297854      2.42%     63.59% # Class of committed instruction (Count)
system.switch_cpus.committedInstType_0::SimdCmp            0      0.00%     63.59% # Class of committed instruction (Count)
system.switch_cpus.committedInstType_0::SimdCvt            0      0.00%     63.59% # Class of committed instruction (Count)
system.switch_cpus.committedInstType_0::SimdMisc      2686154      1.51%     65.10% # Class of committed instruction (Count)
system.switch_cpus.committedInstType_0::SimdMult            0      0.00%     65.10% # Class of committed instruction (Count)
system.switch_cpus.committedInstType_0::SimdMultAcc            0      0.00%     65.10% # Class of committed instruction (Count)
system.switch_cpus.committedInstType_0::SimdShift            0      0.00%     65.10% # Class of committed instruction (Count)
system.switch_cpus.committedInstType_0::SimdShiftAcc            0      0.00%     65.10% # Class of committed instruction (Count)
system.switch_cpus.committedInstType_0::SimdDiv            0      0.00%     65.10% # Class of committed instruction (Count)
system.switch_cpus.committedInstType_0::SimdSqrt            0      0.00%     65.10% # Class of committed instruction (Count)
system.switch_cpus.committedInstType_0::SimdFloatAdd     16388017      9.21%     74.31% # Class of committed instruction (Count)
system.switch_cpus.committedInstType_0::SimdFloatAlu            0      0.00%     74.31% # Class of committed instruction (Count)
system.switch_cpus.committedInstType_0::SimdFloatCmp            0      0.00%     74.31% # Class of committed instruction (Count)
system.switch_cpus.committedInstType_0::SimdFloatCvt      3223389      1.81%     76.12% # Class of committed instruction (Count)
system.switch_cpus.committedInstType_0::SimdFloatDiv      3223392      1.81%     77.93% # Class of committed instruction (Count)
system.switch_cpus.committedInstType_0::SimdFloatMisc            0      0.00%     77.93% # Class of committed instruction (Count)
system.switch_cpus.committedInstType_0::SimdFloatMult     10217330      5.74%     83.67% # Class of committed instruction (Count)
system.switch_cpus.committedInstType_0::SimdFloatMultAcc            0      0.00%     83.67% # Class of committed instruction (Count)
system.switch_cpus.committedInstType_0::SimdFloatSqrt       537232      0.30%     83.98% # Class of committed instruction (Count)
system.switch_cpus.committedInstType_0::SimdReduceAdd            0      0.00%     83.98% # Class of committed instruction (Count)
system.switch_cpus.committedInstType_0::SimdReduceAlu            0      0.00%     83.98% # Class of committed instruction (Count)
system.switch_cpus.committedInstType_0::SimdReduceCmp            0      0.00%     83.98% # Class of committed instruction (Count)
system.switch_cpus.committedInstType_0::SimdFloatReduceAdd            0      0.00%     83.98% # Class of committed instruction (Count)
system.switch_cpus.committedInstType_0::SimdFloatReduceCmp            0      0.00%     83.98% # Class of committed instruction (Count)
system.switch_cpus.committedInstType_0::SimdAes            0      0.00%     83.98% # Class of committed instruction (Count)
system.switch_cpus.committedInstType_0::SimdAesMix            0      0.00%     83.98% # Class of committed instruction (Count)
system.switch_cpus.committedInstType_0::SimdSha1Hash            0      0.00%     83.98% # Class of committed instruction (Count)
system.switch_cpus.committedInstType_0::SimdSha1Hash2            0      0.00%     83.98% # Class of committed instruction (Count)
system.switch_cpus.committedInstType_0::SimdSha256Hash            0      0.00%     83.98% # Class of committed instruction (Count)
system.switch_cpus.committedInstType_0::SimdSha256Hash2            0      0.00%     83.98% # Class of committed instruction (Count)
system.switch_cpus.committedInstType_0::SimdShaSigma2            0      0.00%     83.98% # Class of committed instruction (Count)
system.switch_cpus.committedInstType_0::SimdShaSigma3            0      0.00%     83.98% # Class of committed instruction (Count)
system.switch_cpus.committedInstType_0::SimdPredAlu            0      0.00%     83.98% # Class of committed instruction (Count)
system.switch_cpus.committedInstType_0::MemRead      4307987      2.42%     86.40% # Class of committed instruction (Count)
system.switch_cpus.committedInstType_0::MemWrite      3492042      1.96%     88.36% # Class of committed instruction (Count)
system.switch_cpus.committedInstType_0::FloatMemRead     18551884     10.43%     98.78% # Class of committed instruction (Count)
system.switch_cpus.committedInstType_0::FloatMemWrite      2163850      1.22%    100.00% # Class of committed instruction (Count)
system.switch_cpus.committedInstType_0::IprAccess            0      0.00%    100.00% # Class of committed instruction (Count)
system.switch_cpus.committedInstType_0::InstPrefetch            0      0.00%    100.00% # Class of committed instruction (Count)
system.switch_cpus.committedInstType_0::total    177950970                       # Class of committed instruction (Count)
system.switch_cpus.branchPred.lookups               0                       # Number of BP lookups (Count)
system.switch_cpus.branchPred.condPredicted            0                       # Number of conditional branches predicted (Count)
system.switch_cpus.branchPred.condIncorrect            0                       # Number of conditional branches incorrect (Count)
system.switch_cpus.branchPred.BTBLookups            0                       # Number of BTB lookups (Count)
system.switch_cpus.branchPred.BTBHits               0                       # Number of BTB hits (Count)
system.switch_cpus.branchPred.BTBHitRatio          nan                       # BTB Hit Ratio (Ratio)
system.switch_cpus.branchPred.RASUsed               0                       # Number of times the RAS was used to get a target. (Count)
system.switch_cpus.branchPred.RASIncorrect            0                       # Number of incorrect RAS predictions. (Count)
system.switch_cpus.branchPred.indirectLookups            0                       # Number of indirect predictor lookups. (Count)
system.switch_cpus.branchPred.indirectHits            0                       # Number of indirect target hits. (Count)
system.switch_cpus.branchPred.indirectMisses            0                       # Number of indirect misses. (Count)
system.switch_cpus.branchPred.indirectMispredicted            0                       # Number of mispredicted indirect branches. (Count)
system.switch_cpus.fetch2.intInstructions            0                       # Number of integer instructions successfully decoded (Count)
system.switch_cpus.fetch2.fpInstructions            0                       # Number of floating point instructions successfully decoded (Count)
system.switch_cpus.fetch2.vecInstructions            0                       # Number of SIMD instructions successfully decoded (Count)
system.switch_cpus.fetch2.loadInstructions            0                       # Number of memory load instructions successfully decoded (Count)
system.switch_cpus.fetch2.storeInstructions            0                       # Number of memory store instructions successfully decoded (Count)
system.switch_cpus.fetch2.amoInstructions            0                       # Number of memory atomic instructions successfully decoded (Count)
system.switch_cpus.mmu.dtb.rdAccesses        23404583                       # TLB accesses on read requests (Count)
system.switch_cpus.mmu.dtb.wrAccesses         5655892                       # TLB accesses on write requests (Count)
system.switch_cpus.mmu.dtb.rdMisses              2637                       # TLB misses on read requests (Count)
system.switch_cpus.mmu.dtb.wrMisses                 0                       # TLB misses on write requests (Count)
system.switch_cpus.mmu.dtb.walker.power_state.pwrStateResidencyTicks::UNDEFINED 1427426685500                       # Cumulative time (in ticks) in various power states (Tick)
system.switch_cpus.mmu.itb.rdAccesses               0                       # TLB accesses on read requests (Count)
system.switch_cpus.mmu.itb.wrAccesses        31194263                       # TLB accesses on write requests (Count)
system.switch_cpus.mmu.itb.rdMisses                 0                       # TLB misses on read requests (Count)
system.switch_cpus.mmu.itb.wrMisses                 7                       # TLB misses on write requests (Count)
system.switch_cpus.mmu.itb.walker.power_state.pwrStateResidencyTicks::UNDEFINED 1427426685500                       # Cumulative time (in ticks) in various power states (Tick)
system.switch_cpus.power_state.pwrStateResidencyTicks::OFF 1427426685500                       # Cumulative time (in ticks) in various power states (Tick)
system.switch_cpus.thread_0.numInsts        100000000                       # Number of Instructions committed (Count)
system.switch_cpus.thread_0.numOps          177950970                       # Number of Ops committed (Count)
system.switch_cpus.thread_0.numMemRefs              0                       # Number of Memory References (Count)
system.tol2bus.transDist::ReadResp            4524742                       # Transaction distribution (Count)
system.tol2bus.transDist::WritebackDirty       819399                       # Transaction distribution (Count)
system.tol2bus.transDist::WritebackClean      1026935                       # Transaction distribution (Count)
system.tol2bus.transDist::CleanEvict          2854445                       # Transaction distribution (Count)
system.tol2bus.transDist::ReadExReq              7755                       # Transaction distribution (Count)
system.tol2bus.transDist::ReadExResp             7755                       # Transaction distribution (Count)
system.tol2bus.transDist::ReadCleanReq        2686163                       # Transaction distribution (Count)
system.tol2bus.transDist::ReadSharedReq       1838579                       # Transaction distribution (Count)
system.tol2bus.pktCount_system.cpu.icache.mem_side_port::system.l2.cpu_side_port      8058489                       # Packet count per connected requestor and responder (Count)
system.tol2bus.pktCount_system.cpu.dcache.mem_side_port::system.l2.cpu_side_port      5539002                       # Packet count per connected requestor and responder (Count)
system.tol2bus.pktCount::total               13597491                       # Packet count per connected requestor and responder (Count)
system.tol2bus.pktSize_system.cpu.icache.mem_side_port::system.l2.cpu_side_port    171914432                       # Cumulative packet size per connected requestor and responder (Byte)
system.tol2bus.pktSize_system.cpu.dcache.mem_side_port::system.l2.cpu_side_port    236330752                       # Cumulative packet size per connected requestor and responder (Byte)
system.tol2bus.pktSize::total               408245184                       # Cumulative packet size per connected requestor and responder (Byte)
system.tol2bus.snoops                          168282                       # Total snoops (Count)
system.tol2bus.snoopTraffic                         0                       # Total snoop traffic (Byte)
system.tol2bus.snoopFanout::samples           4700779                       # Request fanout histogram (Count)
system.tol2bus.snoopFanout::mean             0.000019                       # Request fanout histogram (Count)
system.tol2bus.snoopFanout::stdev            0.004302                       # Request fanout histogram (Count)
system.tol2bus.snoopFanout::underflows              0      0.00%      0.00% # Request fanout histogram (Count)
system.tol2bus.snoopFanout::0                 4700692    100.00%    100.00% # Request fanout histogram (Count)
system.tol2bus.snoopFanout::1                      87      0.00%    100.00% # Request fanout histogram (Count)
system.tol2bus.snoopFanout::2                       0      0.00%    100.00% # Request fanout histogram (Count)
system.tol2bus.snoopFanout::3                       0      0.00%    100.00% # Request fanout histogram (Count)
system.tol2bus.snoopFanout::4                       0      0.00%    100.00% # Request fanout histogram (Count)
system.tol2bus.snoopFanout::overflows               0      0.00%    100.00% # Request fanout histogram (Count)
system.tol2bus.snoopFanout::min_value               0                       # Request fanout histogram (Count)
system.tol2bus.snoopFanout::max_value               1                       # Request fanout histogram (Count)
system.tol2bus.snoopFanout::total             4700779                       # Request fanout histogram (Count)
system.tol2bus.power_state.pwrStateResidencyTicks::UNDEFINED 1427426685500                       # Cumulative time (in ticks) in various power states (Tick)
system.tol2bus.reqLayer0.occupancy         6378831000                       # Layer occupancy (ticks) (Tick)
system.tol2bus.reqLayer0.utilization              0.0                       # Layer utilization (Ratio)
system.tol2bus.respLayer0.occupancy        4029244500                       # Layer occupancy (ticks) (Tick)
system.tol2bus.respLayer0.utilization             0.0                       # Layer utilization (Ratio)
system.tol2bus.respLayer1.occupancy        2769501000                       # Layer occupancy (ticks) (Tick)
system.tol2bus.respLayer1.utilization             0.0                       # Layer utilization (Ratio)
system.tol2bus.snoop_filter.totRequests       9064994                       # Total number of requests made to the snoop filter. (Count)
system.tol2bus.snoop_filter.hitSingleRequests      4532497                       # Number of requests hitting in the snoop filter with a single holder of the requested data. (Count)
system.tol2bus.snoop_filter.hitMultiRequests            0                       # Number of requests hitting in the snoop filter with multiple (>1) holders of the requested data. (Count)
system.tol2bus.snoop_filter.totSnoops              87                       # Total number of snoops made to the snoop filter. (Count)
system.tol2bus.snoop_filter.hitSingleSnoops           87                       # Number of snoops hitting in the snoop filter with a single holder of the requested data. (Count)
system.tol2bus.snoop_filter.hitMultiSnoops            0                       # Number of snoops hitting in the snoop filter with multiple (>1) holders of the requested data. (Count)
system.tol3bus.transDist::ReadResp            2854358                       # Transaction distribution (Count)
system.tol3bus.transDist::CleanEvict          3022415                       # Transaction distribution (Count)
system.tol3bus.transDist::ReadCleanReq        2854358                       # Transaction distribution (Count)
system.tol3bus.pktCount_system.l2.mem_side_port::system.l3.cpu_side_port      8563074                       # Packet count per connected requestor and responder (Count)
system.tol3bus.pktSize_system.l2.mem_side_port::system.l3.cpu_side_port    182678912                       # Cumulative packet size per connected requestor and responder (Byte)
system.tol3bus.snoops                          168057                       # Total snoops (Count)
system.tol3bus.snoopTraffic                         0                       # Total snoop traffic (Byte)
system.tol3bus.snoopFanout::samples           3022415                       # Request fanout histogram (Count)
system.tol3bus.snoopFanout::mean             0.000029                       # Request fanout histogram (Count)
system.tol3bus.snoopFanout::stdev            0.005365                       # Request fanout histogram (Count)
system.tol3bus.snoopFanout::underflows              0      0.00%      0.00% # Request fanout histogram (Count)
system.tol3bus.snoopFanout::0                 3022328    100.00%    100.00% # Request fanout histogram (Count)
system.tol3bus.snoopFanout::1                      87      0.00%    100.00% # Request fanout histogram (Count)
system.tol3bus.snoopFanout::overflows               0      0.00%    100.00% # Request fanout histogram (Count)
system.tol3bus.snoopFanout::min_value               0                       # Request fanout histogram (Count)
system.tol3bus.snoopFanout::max_value               1                       # Request fanout histogram (Count)
system.tol3bus.snoopFanout::total             3022415                       # Request fanout histogram (Count)
system.tol3bus.power_state.pwrStateResidencyTicks::UNDEFINED 1427426685500                       # Cumulative time (in ticks) in various power states (Tick)
system.tol3bus.reqLayer0.occupancy         2854358000                       # Layer occupancy (ticks) (Tick)
system.tol3bus.reqLayer0.utilization              0.0                       # Layer utilization (Ratio)
system.tol3bus.respLayer0.occupancy        4281537000                       # Layer occupancy (ticks) (Tick)
system.tol3bus.respLayer0.utilization             0.0                       # Layer utilization (Ratio)
system.tol3bus.snoop_filter.totRequests       5708716                       # Total number of requests made to the snoop filter. (Count)
system.tol3bus.snoop_filter.hitSingleRequests      2854358                       # Number of requests hitting in the snoop filter with a single holder of the requested data. (Count)
system.tol3bus.snoop_filter.hitMultiRequests            0                       # Number of requests hitting in the snoop filter with multiple (>1) holders of the requested data. (Count)
system.tol3bus.snoop_filter.totSnoops              87                       # Total number of snoops made to the snoop filter. (Count)
system.tol3bus.snoop_filter.hitSingleSnoops           87                       # Number of snoops hitting in the snoop filter with a single holder of the requested data. (Count)
system.tol3bus.snoop_filter.hitMultiSnoops            0                       # Number of snoops hitting in the snoop filter with multiple (>1) holders of the requested data. (Count)
system.voltage_domain.voltage                       1                       # Voltage in Volts (Volt)
system.workload.inst.arm                            0                       # number of arm instructions executed (Count)
system.workload.inst.quiesce                        0                       # number of quiesce instructions executed (Count)
system.switch_cpus.idleCycles               128181699                       # Total number of cycles that the object has spent stopped (Unspecified)
system.switch_cpus.tickCycles               294146188                       # Number of cycles that the object actually ticked (Unspecified)

---------- End Simulation Statistics   ----------
